******************************************************
*Heading
Beebe-inspired sorter study
**
**	UNITS:	SI
************************************************************************
**			PARAMETERS
************************************************************************
*Node, nset = nall_right
1,0,0
2,0,4.00000019e-05
3,-4.00000019e-05,0
4,4.00000019e-05,0
5,0,-3.99999942e-05
6,0,3.9999999e-06
7,0,7.99999981e-06
8,0,1.20000002e-05
9,0,1.59999996e-05
10,0,2.00000009e-05
11,0,2.40000004e-05
12,0,2.79999997e-05
13,0,3.19999992e-05
14,0,3.59999987e-05
15,-5.22104771e-06,3.96577952e-05
16,-1.03527622e-05,3.86370346e-05
17,-1.53073372e-05,3.69551824e-05
18,-2.00000009e-05,3.46410166e-05
19,-2.43504571e-05,3.17341337e-05
20,-2.82842705e-05,2.82842705e-05
** ... 320 like lines cut
**
**
** Declare user element
*User Element,Nodes=4,Type=U1,Iproperties=2,Properties=24,Coordinates=2,Variables=20,Unsymm
1,2,4,5,11,12,13
**
*element, type=U1, elset=el_real_right
 1,  87,  15,  16, 105
 2,  19, 104, 102,  18
 3, 102, 121, 126, 107
 4,  94,  30,  31,  96
 5, 109,  86,  94, 116
 6,  25, 108, 103,  24
 7,  86,  29,  30,  94
 8,  25,   3,  26, 108
 9,  14,   2,  15,  87
10, 105,  16,  17, 107
11,  12,  13,  88,  89
12,  11,  12,  89,  90
13, 139, 145, 146, 136
14, 149, 130, 147, 139
15,  29,  86,  92,  28
16,  28,  92,  93,  27
17,  87, 105, 119,  88
18, 140, 134, 133, 115
19,  23, 101, 100,  22
20, 103, 108,  93, 111
** ... 295 like lines cut
**
** call to *elgen which meshes the plate geometry
** "Master Element" for *Elgen
*element, type=CPE4H, elset=el_dummy_right
10001,87,15,16,105
10002,19,104,102,18
10003,102,121,126,107
10004,94,30,31,96
10005,109,86,94,116
10006,25,108,103,24
10007,86,29,30,94
10008,25,3,26,108
10009,14,2,15,87
10010,105,16,17,107
10011,12,13,88,89
10012,11,12,89,90
10013,139,145,146,136
10014,149,130,147,139
10015,29,86,92,28
10016,28,92,93,27
10017,87,105,119,88
10018,140,134,133,115
10019,23,101,100,22
10020,103,108,93,111
** ... 295 like lines cut
**
*Nset, nset=outer_right
  2,  3,  4,  5, 15, 16, 17, 18, 19, 20, 21, 22, 23, 24, 25, 44
 45, 46, 47, 48, 49, 50, 51, 52, 53, 54, 64, 65, 66, 67, 68, 69
 70, 71, 72, 73, 74, 75, 76, 77, 78, 79, 80, 81, 82, 83, 84, 85
*Elset, elset=outer_right
   1,   2,   6,   8,   9,  10,  19,  31,  33,  34,  41,  42,  80,  81,  95,  97
 101, 102, 103, 106, 111, 118, 121, 123, 158, 171, 173, 174, 181, 195, 202, 204
 214, 227, 231, 234, 243, 250, 251, 261, 269, 281, 285, 288, 299, 307, 309, 313
*Nset, nset=mid_right
 1,
*Nset, nset=top_right
 2,
*Surface, Type=Node, Name=OuterSurf_right
outer_right
*****************************
*System
      -0.0009,          0.,          0.,       0.996,          0.,          0.
*Node, nset=nall_left
341,0,0
342,0,4.00000019e-05
343,-4.00000019e-05,0
344,4.00000019e-05,0
345,0,-3.99999942e-05
346,0,3.9999999e-06
347,0,7.99999981e-06
348,0,1.20000002e-05
349,0,1.59999996e-05
350,0,2.00000009e-05
351,0,2.40000004e-05
352,0,2.79999997e-05
353,0,3.19999992e-05
354,0,3.59999987e-05
355,-5.22104771e-06,3.96577952e-05
356,-1.03527622e-05,3.86370346e-05
357,-1.53073372e-05,3.69551824e-05
358,-2.00000009e-05,3.46410166e-05
359,-2.43504571e-05,3.17341337e-05
360,-2.82842705e-05,2.82842705e-05
** ... 320 like lines cut
**
*User Element,Nodes=4,Type=U2,Iproperties=2,Properties=24,Coordinates=2,Variables=20,Unsymm
1,2,4,5,11,12,13
**
*Element, type=U2,elset=el_real_left
316, 427, 355, 356, 445
317, 359, 444, 442, 358
318, 442, 461, 466, 447
319, 434, 370, 371, 436
320, 449, 426, 434, 456
321, 365, 448, 443, 364
322, 426, 369, 370, 434
323, 365, 343, 366, 448
324, 354, 342, 355, 427
325, 445, 356, 357, 447
326, 352, 353, 428, 429
327, 351, 352, 429, 430
328, 479, 485, 486, 476
329, 489, 470, 487, 479
330, 369, 426, 432, 368
331, 368, 432, 433, 367
332, 427, 445, 459, 428
333, 480, 474, 473, 455
334, 363, 441, 440, 362
335, 443, 448, 433, 451
** ... 295 like lines cut
*element, type=CPE4H, elset=el_dummy_left
10316,427,355,356,445
10317,359,444,442,358
10318,442,461,466,447
10319,434,370,371,436
10320,449,426,434,456
10321,365,448,443,364
10322,426,369,370,434
10323,365,343,366,448
10324,354,342,355,427
10325,445,356,357,447
10326,352,353,428,429
10327,351,352,429,430
10328,479,485,486,476
10329,489,470,487,479
10330,369,426,432,368
10331,368,432,433,367
10332,427,445,459,428
10333,480,474,473,455
10334,363,441,440,362
10335,443,448,433,451
** ... 295 like lines cut
*Nset, nset=outer_left
342,343,344,345,355,356,357,358,359,360,361,362,363,364,365,384
385,386,387,388,389,390,391,392,393,394,404,405,406,407,408,409
410,411,412,413,414,415,416,417,418,419,420,421,422,423,424,425
*Elset, elset=outer_left
 316, 317, 321, 323, 324, 325, 334, 346, 348, 349, 356, 357, 395, 396, 410, 412
 416, 417, 418, 421, 426, 433, 436, 438, 473, 486, 488, 489, 496, 510, 517, 519
 529, 542, 546, 549, 558, 565, 566, 576, 584, 596, 600, 603, 614, 622, 624, 628
*Nset, nset=mid_left
341,
*Nset, nset=top_left
342,
*Surface, Type=Node, Name=OuterSurf_left
outer_left
*System
**
** make rigid surfaces
**
*Nset,nset=nall
nall_right,nall_left
*Nset,nset=outer
outer_right,outer_left
*Elset,elset=el_dummy
el_dummy_right,el_dummy_left
*Node
9999,0.0,0.e-3
9998,0.0,1.e-6
9997,0.0,2.e-6
9996,0.0,3.e-6
9995,0.0,4.e-6
*Nset, Nset=RigidRef_rightTop
9999
*Nset, Nset=RigidRef_leftTop
9998
*Nset, Nset=RigidRef_bottom
9997
*Nset, Nset=RigidRef_channel1
9996
*Nset, Nset=RigidRef_channel2
9995
*Surface, type=SEGMENTS, name=RigidSurf_rightTop
START, 0.3e-3,   0.165e-3
LINE, -0.16e-3,   0.165e-3
*Rigid Body, ref node=RigidRef_rightTop, analytical surface=RigidSurf_rightTop
*Surface, type=SEGMENTS, name=RigidSurf_leftTop
START, -0.75e-3,   0.165e-3
LINE,  -1.2e-3,   0.165e-3
*Rigid Body, ref node=RigidRef_leftTop, analytical surface=RigidSurf_leftTop
*Surface, type=SEGMENTS, name=RigidSurf_bottom
START,-1.2e-3,   -0.165e-3
LINE,  0.3e-3,   -0.165e-3
*Rigid Body, ref node=RigidRef_bottom, analytical surface=RigidSurf_bottom
*Surface, type=SEGMENTS, name=RigidSurf_channel1
START,-0.16e-3,   0.165e-3
LINE,  -0.16e-3,  0.6e-3
*Rigid Body, ref node=RigidRef_channel1, analytical surface=RigidSurf_channel1
*Surface, type=SEGMENTS, name=RigidSurf_channel2
START,-0.75e-3,   0.165e-3
LINE, -0.75e-3,   0.6e-3
*Rigid Body, ref node=RigidRef_channel2, analytical surface=RigidSurf_channel2
**
************************************************************************
**			MATERIAL DEFINITION
************************************************************************
**
** Material properties for the real mesh
**
*uel property,elset=el_real_right
*******************************************************************
**Gshear      Kbulk	     chi	   D	mu0	     Vmol	     Rgas	theta
100000.0,	3000000.0,	0.4,	  1.7e-06,	0,	1.8e-05,	8.314,	298,
**
**phi0,             permitt,   DiffP, cRmaxP,      cbarP0,      zP_mob,   DiffN,  cRmaxN
0.999,	  8.85e-12,   4e-08,  10000.0,  1500.0,   1.0,     4e-08,  10000.0,
**
**     cbarN0,      zN_mob,           cRf,   zf 	       cOH0       zOH_mob    DiffOH, %(omgOH0)s
      5.0,   -1.0,     1495.0002, -1.0,     0.0002, 1.0, 5e-06 ,  48169.7773568
** 0.25,   -1,     1000,   1,      3,	3
**     nlSdv	ngSdv
		5,	     7
*******************************************************************
*uel property,elset=el_real_left
*******************************************************************
**Gshear      Kbulk	     chi	   D	mu0	     Vmol	     Rgas	theta
100000.0,	3000000.0,	0.4,	  1.7e-06,	0,	1.8e-05,	8.314,	298,
**
**phi0,             permitt,   DiffP, cRmaxP,      cbarP0,      zP_mob,   DiffN,  cRmaxN
0.999,	  8.85e-12,   4e-08,  10000.0,  5.0,   1.0,     4e-08,  10000.0,
**
**     cbarN0,      zN_mob,           cRf,   zf 	       cOH0       zOH_mob    DiffOH, omgOH0 = ???
      1500.0,   -1.0,     1495.00005, 1.0,     5e-05, -1.0, 5e-06 ,  51604.4214497
** 0.25,   -1,     1000,   1,      3,	3
**     nlSdv	ngSdv
		5,	     7
********************************************************
** Dummy mesh material properties
**
*Solid section, elset=el_dummy_right, material=umaterial
*Solid section, elset=el_dummy_left, material=umaterial
***Hourglass Stiffness
**80.e-20
**
*Material, name=umaterial
**
*Elastic
1e-20, 0.3
*User output variables
7
**
** *user material, constant=0
** **
** *Depvar
** 19
** 1, cbar
** 2, T11
** 3, T22
** 4, T12
** 5, T33
** 6, Tes11
** 7, Tes22
** 8, Tes12
** 9, Tes33
** 10, Tme11
** 11, Tme22
** 12, Tme12
** 13, Tme33
** 14, e1
** 15, e2
** 16, j1
** 17, j2
** 18, pbar
** 19, Js
**
**
*Density
1.0
**
*Specific heat
1.0
**
**
************************************************************************
**			BOUNDARY CONDITIONS
************************************************************************
** *EQUATION
** 2
** right,2,-1.0
** ref_node,2,1.0
** 2
** right,1,-1.0
** ref_node,1,1.0
**
**
*Contact Pair, Interaction=int, Type=node to surface
OuterSurf_right,RigidSurf_rightTop
OuterSurf_left,RigidSurf_leftTop
OuterSurf_right,RigidSurf_bottom
OuterSurf_left,RigidSurf_bottom
**
*Surface Interaction, name=int
*Friction
0.0
*Surface Behavior, pressure-overclosure=hard
**
************************************************************************
**			INITIAL CONDITIONS
************************************************************************
**
*Initial conditions, type=temperature
nall_right, -80700.6269551, 8163.19432417, -5968.33742913
nall_left, -80700.6269551, -5968.33742913, 8163.19432417
**, %(omg1_init)s, %(omg2_init)s
************************************************************************
**			AMPLITUDE DEFINITION
************************************************************************
**
*Amplitude, name=amp_1_A
0.,-80700.6269551, 14400.0, -87.8165133422
*Amplitude, name=amp_1b_A
0.,8163.19432417, 14400.0, -10902.2478055
*Amplitude, name=amp_1c_A
0.,-5968.33742913, 14400.0, -25033.7795588
*Amplitude, name=amp_1_B
0.,-80700.6269551, 14400.0, -87.8165133422
*Amplitude, name=amp_1b_B
0.,-5968.33742913, 14400.0, -25033.7795588
*Amplitude, name=amp_1c_B
0.,8163.19432417, 14400.0, -10902.2478055
*******
*Amplitude, name=amp_cycle_A
**, definition= Smooth Step
0.,-87.8165133422,14400.0,-4.45963851926,18000.0,-4.45963851926
*Amplitude, name=amp_cycle1_A
**, definition= Smooth Step
0.,-10902.2478055,14400.0,-17375.4993256,18000.0,-17375.4993256
*Amplitude, name=amp_cycle2_A
**, definition= Smooth Step
0.,-25033.7795588,14400.0,-17375.4993256,18000.0,-17375.4993256
**
*Amplitude, name=amp_cycle_B
**, definition= Smooth Step
0.,-87.8165133422,14400.0,-4.45963851926,18000.0,-4.45963851926
*Amplitude, name=amp_cycle1_B
**, definition= Smooth Step
0.,-25033.7795588,14400.0,-17375.4993256,18000.0,-17375.4993256
*Amplitude, name=amp_cycle2_B
**, definition= Smooth Step
0.,-10902.2478055,14400.0,-17375.4993256,18000.0,-17375.4993256
****
*Amplitude, name=amp_pH1, definition= Smooth Step
0.,0.0,4.0,-18831.7831085,30.0,-18831.7831085,34.0,15397.1390156
60.0,15397.1390156
*Amplitude, name=amp_pH2, definition= Smooth Step
0.,0.0,4.0,15397.1390156,30.0,15397.1390156,34.0,0.0
60.0,0.0
*Amplitude, name=amp_pH1_, definition= Smooth Step
0.,0.0,4.0,18831.7831085,30.0,18831.7831085,34.0,-15397.1390156
60.0,-15397.1390156
*Amplitude, name=amp_pH2_, definition= Smooth Step
0.,0.0,4.0,-15397.1390156,30.0,-15397.1390156,34.0,0.0
60.0,0.0
************************************************************************
**			STEP DEFINITION
************************************************************************
************************************************************************
*Step, Name=swell, nlgeom=yes, inc=50000
*Coupled temperature-displacement, deltmx=2000
**, stabilize
0.0018,18000.0,1e-15,720.0
*CONTROLS, PARAMETERS=TIME INCREMENTATION
,,,,,,,30,,,,,,
***Solution technique, type=separated
*CONTROLS, PARAMETERS=LINE SEARCH
10,1.0,0.0001,0.25,0.10
**
** 	DISPLACEMENT B.C.
*Boundary,op=mod
mid_right,1,2
top_right,1,1
mid_left,1,2
top_left,1,1
RigidRef_rightTop,encastre
RigidRef_leftTop,encastre
RigidRef_bottom,encastre
RigidRef_channel1,encastre
RigidRef_channel2,encastre
**
nall,5,5,0.
**nall,4,4,0.
*Boundary,amplitude=amp_1_A
nall_right,11,11,1.
*Boundary,amplitude=amp_1b_A
nall_right,12,12,1.
*Boundary,amplitude=amp_1c_A
nall_right,13,13,1.
**
*Boundary,amplitude=amp_1_B
nall_left,11,11,1.
*Boundary,amplitude=amp_1b_B
nall_left,12,12,1.
*Boundary,amplitude=amp_1c_B
nall_left,13,13,1.
**
**	OUTPUTS
**
*Output, field
**, number interval=40
*node output, nset=nall
u,nt
*Element output, elset=el_dummy
le,UVARM
**
*Output, history
*Element output, elset=el_dummy
UVARM1
***Node output, nset=ref_node
**rf2
*End Step
************************************************************************
*Step, Name=equilibriate1, nlgeom=yes, inc=50000
*Coupled temperature-displacement, deltmx=2000, stabilize
0.0018,18000.0,1e-15,720.0
*CONTROLS, PARAMETERS=TIME INCREMENTATION
,,,,,,,30,,,,,,
***Solution technique, type=separated
*CONTROLS, PARAMETERS=LINE SEARCH
10,1.0,0.0001,0.25,0.10
**
** 	DISPLACEMENT B.C.
*Boundary,op=new
mid_right,1,2
top_right,1,1
mid_left,1,2
top_left,1,1
RigidRef_rightTop,encastre
RigidRef_leftTop,encastre
RigidRef_bottom,encastre
RigidRef_channel1,encastre
RigidRef_channel2,encastre
**right,1,1,3.e-3
**top,2,2,10.e-3
**
**nall,5,5,0.
outer_right,5,5,0.
outer_left,5,5,0.
**nall,4,4,0.
**nall,12,12,omg1_init = ???
**nall,13,13,%(omg2_init)s
**nall,11,11,%(omg_init)s
**
*Boundary,amplitude=amp_cycle_A,op=new
nall_right,11,11,1.
*Boundary,amplitude=amp_cycle1_A,op=new
nall_right,12,12,1.
*Boundary,amplitude=amp_cycle2_A,op=new
nall_right,13,13,1.
**
*Boundary,amplitude=amp_cycle_B,op=new
nall_left,11,11,1.
*Boundary,amplitude=amp_cycle1_B,op=new
nall_left,12,12,1.
*Boundary,amplitude=amp_cycle2_B,op=new
nall_left,13,13,1.
**	OUTPUTS
**
*Output, field
**, number interval=40
*node output, nset=nall
u,nt
*Element output, elset=el_dummy
le,UVARM
**
*Output, history
***Node output, nset=ref_node
**rf2
*End Step
************************************************************************
************************************************************************
*Step, Name=decrease, nlgeom=yes, inc=50000
*Coupled temperature-displacement, deltmx=2000
**, stabilize
0.0018,60.0,1e-15,0.15
*CONTROLS, PARAMETERS=TIME INCREMENTATION
,,,,,,,30,,,,,,
***Solution technique, type=separated
*CONTROLS, PARAMETERS=LINE SEARCH
10,1.0,0.0001,0.25,0.10
**
** 	DISPLACEMENT B.C.
*Boundary,op=new
mid_right,1,2
top_right,1,1
mid_left,1,2
top_left,1,1
RigidRef_rightTop,encastre
RigidRef_leftTop,encastre
RigidRef_bottom,encastre
RigidRef_channel1,encastre
RigidRef_channel2,encastre
**right,1,1,3.e-3
**top,2,2,10.e-3
**
**nall,5,5,0.
**outer,5,5,0.
**
outer,11,11,-4.45963851926
outer,12,12,-17375.4993256
outer,13,13,-17375.4993256
**
*Boundary,amplitude=amp_pH1,op=new
outer_right,5,5,1.
*Boundary,amplitude=amp_pH1_,op=new
outer_left,5,5,1.
**right,11,11,1.
**
**	OUTPUTS
**
*Output, field
**, number interval=40
*node output, nset=nall
u,nt
*Element output, elset=el_dummy
le,UVARM
**
*Output, history
***Node output, nset=ref_node
**rf2
*End Step
************************************************************************
