******************************************************
*Heading
Bi-material beam study
**
**	UNITS:	SI
************************************************************************
**			PARAMETERS
************************************************************************
*Parameter
**
** total simulation time (seconds)
tramp = 3600*2.
tload = 3600*5.
tlim = tramp/40.
tlim2 = tlim/2
**
deltload = 400.
deltload2 = 7.5
tload0b = deltload2
tload1b = deltload2*2 
tload2b = 60.
tday = 24*3600.
tload1 = deltload
tload2 = 3000.
tload3 = tload2 + deltload
tload4 = 2*tload2
tload5 = 2*tday + 2*deltload
tload6 = 3*tday
tlim2 = tload2/30
**
** Total strain
eps = 0.2
** 
** Strain rate
epsdot = eps/tload
** 
** Velocity
vel2 = epsdot*1e-3
**
** inital time step
ti = tload/1e7
** 
** max time step
tmax = tload/500
**
** min time step
tmin = 1e-15
**
*******************************
Eyoung = 2.9*75.e3
anu = 0.45
Gshear = 100.e3
**72.5e3/2.
**75.e3
Kbulk = Gshear*10
**72.5e4
**750.e3
*******************************
mu0 = 0
**
c1_st = 10000.
c2_st = 10000.
**
c1_init0_A = 1500.
**1500.
c2_init0_A = 5.
c1_init0_B = 5.
c2_init0_B = 1500.
c1_init0_C = 5.
c2_init0_C = 5.
c3_init0 = 0.5625*1.e-5*1.e3
c4_init0 = 0.1778*1.e-7*1.e3
**1480.
**
Ka_COOH = 0.3162*1.e-4*1.e3
Ka_none = 1.e-15*1.e3
Kb_NH3  = 1.e-6*1.e3
phi_init0 = 0.999
**
**cbar_bound = 0.15
c_bound_A = c1_init0_A - c2_init0_A + c3_init0
c_bound_B = c2_init0_B - c1_init0_B + c4_init0
c_bound_C = 0.
**+ c3_init0
**1600.
**
Rgas = 8.314
vartheta = 298
**omg_init = mu0 + Rgas*vartheta*log(cbar0)
**
*********************
z_val = 0.
z1_val = 1.
z2_val = -1.
z3_val = 1.
z4_val = -1.
z_bound_A = -1.
z_bound_B = 1.
z_bound_C = -1.
Farad = 96485.
********************
**
Omega = 1.8e-5
**21.e-5
D  = 1.7e-6
**2.e-5
D1 = 4.e-8
**1.e-8
**1.e-6
D2 = 4.e-8
**1.e-8
**1.e-6
D3 = 7.e-7
D4 = 7.e-7
**
key0 = 0.
key1 = 1.
**
chi = 0.4
omg_init0_A  = mu0 + Rgas*vartheta*(log(1-phi_init0)+ phi_init0*(1+chi*phi_init0)-Omega*(c1_init0_A+c2_init0_A+c3_init0)*(phi_init0)/(1-phi_init0))
**
omg1_init0_A = mu0 + Rgas*vartheta*log(Omega*c1_init0_A*(phi_init0)/(1-phi_init0))
omg2_init0_A = mu0 + Rgas*vartheta*log(Omega*c2_init0_A*(phi_init0)/(1-phi_init0))
**
omg_init0_B  = mu0 + Rgas*vartheta*(log(1-phi_init0)+ phi_init0*(1+chi*phi_init0)-Omega*(c1_init0_B+c2_init0_B+c4_init0)*(phi_init0)/(1-phi_init0))
**
omg1_init0_B = mu0 + Rgas*vartheta*log(Omega*c1_init0_B*(phi_init0)/(1-phi_init0))
omg2_init0_B = mu0 + Rgas*vartheta*log(Omega*c2_init0_B*(phi_init0)/(1-phi_init0))
**
omg3_init0 = 0.
omg30 = -Rgas*vartheta*log(Omega*c3_init0*(phi_init0)/(1-phi_init0))
** 
**
omg4_init0 = 0.
omg40 = -Rgas*vartheta*log(Omega*c4_init0*(phi_init0)/(1-phi_init0))
** *(phi_init0)/(1-phi_init0)
**
phi_init = 1/3.2
**1/3.215
c1_init_A = c1_init0_A
**
c2_init_A = c2_init0_A
**
c1_init_B = c1_init0_B
**
c2_init_B = c2_init0_B
**
omg_init_A  = mu0 + Rgas*vartheta*(log(1-phi_init)+ phi_init*(1+chi*phi_init)-Omega*(c1_init_A+c2_init_A+c3_init0)*(phi_init)/(1-phi_init))
**
omg1_init_A = mu0 + Rgas*vartheta*log(Omega*c1_init_A*(phi_init)/(1-phi_init))
omg2_init_A = mu0 + Rgas*vartheta*log(Omega*c2_init_A*(phi_init)/(1-phi_init))
omg3_init_A = omg30 + Rgas*vartheta*log(Omega*c3_init0)
** *phi_init/(1-phi_init)
**
omg_init_B  = mu0 + Rgas*vartheta*(log(1-phi_init)+ phi_init*(1+chi*phi_init)-Omega*(c1_init_B+c2_init_B+c4_init0)*(phi_init)/(1-phi_init))
**
omg1_init_B = mu0 + Rgas*vartheta*log(Omega*c1_init_B*(phi_init)/(1-phi_init))
omg2_init_B = mu0 + Rgas*vartheta*log(Omega*c2_init_B*(phi_init)/(1-phi_init))
omg4_init_B = omg40 + Rgas*vartheta*log(Omega*c4_init0)
**
c1_sol1 = 1000.
c3_sol1 = 0.5625*1.e-6*1.e3
c4_sol1 = 0.1778*1.e-7*1.e3
c2_sol1 = 1000.
**
**omg_sol1 = omg_init
**omg1_sol1 = omg1_init
**omg2_sol1 = omg2_init
**
**omg_init=omg_init0
**omg1_init=omg1_init0
**omg2_init=omg2_init0
**
omg_sol1 = mu0 - Rgas*vartheta*Omega*(c1_sol1+c2_sol1+c3_sol1) 
**omg_sol1 = 0.9*omg_init
omg1_sol1 = mu0 +  Rgas*vartheta*log(Omega*c1_sol1)
omg2_sol1 = mu0 +  Rgas*vartheta*log(Omega*c2_sol1)
********************
omg3_sol1 = omg30 + Rgas*vartheta*log(Omega*c3_sol1)
omg4_sol1 = omg40 + Rgas*vartheta*log(Omega*c4_sol1)
**
c3_sol2 = 0.5625*1.e-6*1.e3
omg3_sol2 = omg30 + Rgas*vartheta*log(Omega*c3_sol2)
c4_sol2 = 0.1778*1.e-7*1.e3
omg4_sol2 = omg40 + Rgas*vartheta*log(Omega*c4_sol2)
**
c3_sol3 = 0.5625*1.e-8*1.e3
omg3_sol3 = omg30 + Rgas*vartheta*log(Omega*c3_sol3)
c4_sol3 = 0.1778*1.e-5*1.e3
omg4_sol3 = omg40 + Rgas*vartheta*log(Omega*c4_sol3)
**
c3_sol4 = 0.5625*1.e-4*1.e3
omg3_sol4 = omg30 + Rgas*vartheta*log(Omega*c3_sol4)
c4_sol4 = 0.1778*1.e-9*1.e3
omg4_sol4 = omg40 + Rgas*vartheta*log(Omega*c4_sol4)
********************
c1_sol2 = 100.
c2_sol2 = 100.
**
omg_sol2  = mu0 - Rgas*vartheta*Omega*(c1_sol2+c2_sol2) 
omg1_sol2 = mu0 +  Rgas*vartheta*log(Omega*c1_sol2)
omg2_sol2 = mu0 +  Rgas*vartheta*log(Omega*c2_sol2)
***************
omg_diff1 = omg_sol1-omg_sol2
omg1_diff1 = omg1_sol1-omg1_sol2
omg2_diff1 = omg2_sol1-omg2_sol2
**
omg_diff2 = omg_sol2-omg_sol1
omg1_diff2 = omg1_sol2-omg1_sol1
omg2_diff2 = omg2_sol2-omg2_sol1
**
** Integer parameters
nlSdv = 3
ngSdv = 3
nInt = 4
nvars = nlSdv*nInt
**
** ~~~~~~~~~~~~~~~~~~~~~~~~~~~~~~~~~~~~~~~~~~~~~~~~~~~~~~~~~~~~~~~~~~~~~
** 			INPUTS
** ~~~~~~~~~~~~~~~~~~~~~~~~~~~~~~~~~~~~~~~~~~~~~~~~~~~~~~~~~~~~~~~~~~~~~
**
** major dimensions of plate (m)
xlength = 1.69e-3
**
ylength = 6.77e-3/2
**
** number of elements along each direction
xElem = 10
yElem = 10
**
**
** ~~~~~~~~~~~~~~~~~~~~~~~~~~~~~~~~~~~~~~~~~~~~~~~~~~~~~~~~~~~~~~~~~~~~~
** 			GEOMETRY GENERATION
** ~~~~~~~~~~~~~~~~~~~~~~~~~~~~~~~~~~~~~~~~~~~~~~~~~~~~~~~~~~~~~~~~~~~~~
**
**
** Nodes at the vertices:
*Node, nset = nall
      1, 0.00499999989, 5.99999985e-05,           0.
      2, 0.00499999989,           0., 0.000300000014
      3, 0.00499999989,           0.,           0.
      4,           0.,           0., 0.000300000014
      5,           0., 5.99999985e-05,           0.
      6,           0.,           0.,           0.
      7, 0.00499999989, 5.99999985e-05, 0.000300000014
      8,           0., 5.99999985e-05, 0.000300000014
      9, 0.00499999989, 1.49999996e-05,           0.
     10, 0.00499999989, 2.99999992e-05,           0.
     11, 0.00499999989, 4.50000007e-05,           0.
     12, 0.00499999989, 4.50000007e-05, 7.50000036e-05
     13, 0.00499999989, 2.99999992e-05, 0.000150000007
     14, 0.00499999989, 1.49999996e-05, 0.000224999996
     15, 0.000156249997, 5.99999985e-05,           0.
     16, 0.000312499993, 5.99999985e-05,           0.
     17, 0.00046874999, 5.99999985e-05,           0.
     18, 0.000624999986, 5.99999985e-05,           0.
     19, 0.000781250012, 5.99999985e-05,           0.
     20, 0.000937499979, 5.99999985e-05,           0.
** ... 1069 like lines cut
**
**
**
** Declare user element
*User Element,Nodes=8,Type=U1,Iproperties=2,Properties=24,Coordinates=3,Variables=40,Unsymm
1,2,3,11,12,13,14,15,16
**
*element, type=U1, elset=el_real_polyA
  1, 263, 264, 783, 691,  10,  11, 164, 163
  2, 264,  45, 170, 783,  11,   1,  12, 164
  3, 691, 783, 706, 673, 163, 164, 166, 165
  4, 783, 170, 171, 706, 164,  12,  13, 166
  5, 265, 266, 784, 692, 263, 264, 783, 691
  6, 266,  44, 172, 784, 264,  45, 170, 783
  7, 692, 784, 707, 672, 691, 783, 706, 673
  8, 784, 172, 173, 707, 783, 170, 171, 706
  9, 267, 268, 785, 693, 265, 266, 784, 692
 10, 268,  43, 174, 785, 266,  44, 172, 784
 11, 693, 785, 708, 671, 692, 784, 707, 672
 12, 785, 174, 175, 708, 784, 172, 173, 707
 13, 269, 270, 786, 694, 267, 268, 785, 693
 14, 270,  42, 176, 786, 268,  43, 174, 785
 15, 694, 786, 709, 670, 693, 785, 708, 671
 16, 786, 176, 177, 709, 785, 174, 175, 708
 17, 271, 272, 787, 695, 269, 270, 786, 694
 18, 272,  41, 178, 787, 270,  42, 176, 786
 19, 695, 787, 710, 669, 694, 786, 709, 670
 20, 787, 178, 179, 710, 786, 176, 177, 709
** ... 364 like lines cut
**
** call to *elgen which meshes the plate geometry
** "Master Element" for *Elgen
*element, type=C3D8H, elset=el_dummy_polyA
10001,263,264,783,691,10,11,164,163
10002,264,45,170,783,11,1,12,164
10003,691,783,706,673,163,164,166,165
10004,783,170,171,706,164,12,13,166
10005,265,266,784,692,263,264,783,691
10006,266,44,172,784,264,45,170,783
10007,692,784,707,672,691,783,706,673
10008,784,172,173,707,783,170,171,706
10009,267,268,785,693,265,266,784,692
10010,268,43,174,785,266,44,172,784
10011,693,785,708,671,692,784,707,672
10012,785,174,175,708,784,172,173,707
10013,269,270,786,694,267,268,785,693
10014,270,42,176,786,268,43,174,785
10015,694,786,709,670,693,785,708,671
10016,786,176,177,709,785,174,175,708
10017,271,272,787,695,269,270,786,694
10018,272,41,178,787,270,42,176,786
10019,695,787,710,669,694,786,709,670
10020,787,178,179,710,786,176,177,709
** ... 364 like lines cut
**
*element, type=U1, elset=el_real_polyC
385,  463,  464, 1000,  908,  121,  122,  457,  456
386,  464,   49,  202, 1000,  122,    2,   14,  457
387,  908, 1000,  923,  890,  456,  457,  459,  458
388, 1000,  202,  171,  923,  457,   14,   13,  459
389,  465,  466, 1001,  909,  463,  464, 1000,  908
390,  466,   50,  203, 1001,  464,   49,  202, 1000
391,  909, 1001,  924,  889,  908, 1000,  923,  890
392, 1001,  203,  173,  924, 1000,  202,  171,  923
393,  467,  468, 1002,  910,  465,  466, 1001,  909
394,  468,   51,  204, 1002,  466,   50,  203, 1001
395,  910, 1002,  925,  888,  909, 1001,  924,  889
396, 1002,  204,  175,  925, 1001,  203,  173,  924
397,  469,  470, 1003,  911,  467,  468, 1002,  910
398,  470,   52,  205, 1003,  468,   51,  204, 1002
399,  911, 1003,  926,  887,  910, 1002,  925,  888
400, 1003,  205,  177,  926, 1002,  204,  175,  925
401,  471,  472, 1004,  912,  469,  470, 1003,  911
402,  472,   53,  206, 1004,  470,   52,  205, 1003
403,  912, 1004,  927,  886,  911, 1003,  926,  887
404, 1004,  206,  179,  927, 1003,  205,  177,  926
** ... 364 like lines cut
**
** call to *elgen which meshes the plate geometry
** "Master Element" for *Elgen
*element, type=C3D8H, elset=el_dummy_polyC
10385,463,464,1000,908,121,122,457,456
10386,464,49,202,1000,122,2,14,457
10387,908,1000,923,890,456,457,459,458
10388,1000,202,171,923,457,14,13,459
10389,465,466,1001,909,463,464,1000,908
10390,466,50,203,1001,464,49,202,1000
10391,909,1001,924,889,908,1000,923,890
10392,1001,203,173,924,1000,202,171,923
10393,467,468,1002,910,465,466,1001,909
10394,468,51,204,1002,466,50,203,1001
10395,910,1002,925,888,909,1001,924,889
10396,1002,204,175,925,1001,203,173,924
10397,469,470,1003,911,467,468,1002,910
10398,470,52,205,1003,468,51,204,1002
10399,911,1003,926,887,910,1002,925,888
10400,1003,205,177,926,1002,204,175,925
10401,471,472,1004,912,469,470,1003,911
10402,472,53,206,1004,470,52,205,1003
10403,912,1004,927,886,911,1003,926,887
10404,1004,206,179,927,1003,205,177,926
** ... 364 like lines cut
**
*****************************
**
*Nset, nset=bottom
   2,   3,   4,   6,  46,  47,  48,  49,  50,  51,  52,  53,  54,  55,  56,  57
  58,  59,  60,  61,  62,  63,  64,  65,  66,  67,  68,  69,  70,  71,  72,  73
  74,  75,  76,  77,  78,  79,  80,  81,  82,  83,  84,  85,  86,  87,  88,  89
  90,  91,  92,  93,  94,  95,  96,  97,  98,  99, 100, 101, 102, 103, 104, 105
 106, 107, 108, 109, 110, 114, 115, 116, 356, 357, 358, 359, 360, 361, 362, 363
 364, 365, 366, 367, 368, 369, 370, 371, 372, 373, 374, 375, 376, 377, 378, 379
 380, 381, 382, 383, 384, 385, 386, 387, 388, 389, 390, 391, 392, 393, 394, 395
 396, 397, 398, 399, 400, 401, 402, 403, 404, 405, 406, 407, 408, 409, 410, 411
 412, 413, 414, 415, 416, 417, 418, 419, 420, 421, 422, 423, 424, 425, 426, 427
 428, 429, 430, 431, 432, 433, 434, 435, 436, 437, 438, 439, 440, 441, 442, 443
 444, 445, 446, 447, 448
*Elset, elset=bottom
  66,  68,  70,  72,  74,  76,  78,  80,  82,  84,  86,  88,  90,  92,  94,  96
  98, 100, 102, 104, 106, 108, 110, 112, 114, 116, 118, 120, 122, 124, 126, 128
 129, 130, 133, 134, 137, 138, 141, 142, 145, 146, 149, 150, 153, 154, 157, 158
 161, 162, 165, 166, 169, 170, 173, 174, 177, 178, 181, 182, 185, 186, 189, 190
 194, 196, 198, 200, 202, 204, 206, 208, 210, 212, 214, 216, 218, 220, 222, 224
 226, 228, 230, 232, 234, 236, 238, 240, 242, 244, 246, 248, 250, 252, 254, 256
 322, 324, 326, 328, 330, 332, 334, 336, 338, 340, 342, 344, 346, 348, 350, 352
 354, 356, 358, 360, 362, 364, 366, 368, 370, 372, 374, 376, 378, 380, 382, 384
*Nset, nset=top
   1,   5,   7,   8,  15,  16,  17,  18,  19,  20,  21,  22,  23,  24,  25,  26
  27,  28,  29,  30,  31,  32,  33,  34,  35,  36,  37,  38,  39,  40,  41,  42
  43,  44,  45, 123, 124, 125, 126, 127, 128, 129, 130, 131, 132, 133, 134, 135
 136, 137, 138, 139, 140, 141, 142, 143, 144, 145, 146, 147, 148, 149, 150, 151
 152, 153, 154, 155, 156, 160, 161, 162, 556, 557, 558, 559, 560, 561, 562, 563
 564, 565, 566, 567, 568, 569, 570, 571, 572, 573, 574, 575, 576, 577, 578, 579
 580, 581, 582, 583, 584, 585, 586, 587, 588, 589, 590, 591, 592, 593, 594, 595
 596, 597, 598, 599, 600, 601, 602, 603, 604, 605, 606, 607, 608, 609, 610, 611
 612, 613, 614, 615, 616, 617, 618, 619, 620, 621, 622, 623, 624, 625, 626, 627
 628, 629, 630, 631, 632, 633, 634, 635, 636, 637, 638, 639, 640, 641, 642, 643
 644, 645, 646, 647, 648
*Elset, elset=top
 450, 452, 454, 456, 458, 460, 462, 464, 466, 468, 470, 472, 474, 476, 478, 480
 482, 484, 486, 488, 490, 492, 494, 496, 498, 500, 502, 504, 506, 508, 510, 512
 513, 514, 517, 518, 521, 522, 525, 526, 529, 530, 533, 534, 537, 538, 541, 542
 545, 546, 549, 550, 553, 554, 557, 558, 561, 562, 565, 566, 569, 570, 573, 574
 642, 644, 646, 648, 650, 652, 654, 656, 658, 660, 662, 664, 666, 668, 670, 672
 674, 676, 678, 680, 682, 684, 686, 688, 690, 692, 694, 696, 698, 700, 702, 704
 706, 708, 710, 712, 714, 716, 718, 720, 722, 724, 726, 728, 730, 732, 734, 736
 738, 740, 742, 744, 746, 748, 750, 752, 754, 756, 758, 760, 762, 764, 766, 768
*Nset, nset=left
   4,   5,   6,   8, 111, 112, 113, 114, 115, 116, 117, 118, 119, 157, 158, 159
 160, 161, 162, 449, 450, 451, 452, 453, 454, 455, 649, 650, 651, 652, 653, 654
 655,
*Elset, elset=left
 193, 194, 225, 226, 272, 288, 304, 320, 321, 322, 323, 324, 592, 608, 624, 640
 641, 642, 673, 674, 705, 706, 707, 708
*Nset, nset=left_back_bottom
 6,
*Nset, nset=right
   1,   2,   3,   7,   9,  10,  11,  12,  13,  14,  46,  47,  48, 120, 121, 122
 123, 124, 125, 163, 164, 165, 166, 167, 168, 169, 456, 457, 458, 459, 460, 461
 462,
*Elset, elset=right
   1,   2,   3,   4,  65,  66,  67,  68, 129, 130, 131, 132, 385, 386, 387, 388
 449, 450, 451, 452, 513, 514, 515, 516
*Nset, nset=front
   2,   4,   7,   8,  49,  50,  51,  52,  53,  54,  55,  56,  57,  58,  59,  60
  61,  62,  63,  64,  65,  66,  67,  68,  69,  70,  71,  72,  73,  74,  75,  76
  77,  78,  79, 120, 121, 122, 126, 127, 128, 129, 130, 131, 132, 133, 134, 135
 136, 137, 138, 139, 140, 141, 142, 143, 144, 145, 146, 147, 148, 149, 150, 151
 152, 153, 154, 155, 156, 157, 158, 159, 463, 464, 465, 466, 467, 468, 469, 470
 471, 472, 473, 474, 475, 476, 477, 478, 479, 480, 481, 482, 483, 484, 485, 486
 487, 488, 489, 490, 491, 492, 493, 494, 495, 496, 497, 498, 499, 500, 501, 502
 503, 504, 505, 506, 507, 508, 509, 510, 511, 512, 513, 514, 515, 516, 517, 518
 519, 520, 521, 522, 523, 524, 525, 526, 527, 528, 529, 530, 531, 532, 533, 534
 535, 536, 537, 538, 539, 540, 541, 542, 543, 544, 545, 546, 547, 548, 549, 550
 551, 552, 553, 554, 555
*Elset, elset=front
 385, 386, 389, 390, 393, 394, 397, 398, 401, 402, 405, 406, 409, 410, 413, 414
 417, 418, 421, 422, 425, 426, 429, 430, 433, 434, 437, 438, 441, 442, 445, 446
 514, 516, 518, 520, 522, 524, 526, 528, 530, 532, 534, 536, 538, 540, 542, 544
 546, 548, 550, 552, 554, 556, 558, 560, 562, 564, 566, 568, 570, 572, 574, 576
 577, 578, 579, 580, 581, 582, 583, 584, 585, 586, 587, 588, 589, 590, 591, 592
 609, 610, 611, 612, 613, 614, 615, 616, 617, 618, 619, 620, 621, 622, 623, 624
 705, 706, 709, 710, 713, 714, 717, 718, 721, 722, 725, 726, 729, 730, 733, 734
 737, 738, 741, 742, 745, 746, 749, 750, 753, 754, 757, 758, 761, 762, 765, 766
*Nset, nset=back
   1,   3,   5,   6,   9,  10,  11,  15,  16,  17,  18,  19,  20,  21,  22,  23
  24,  25,  26,  27,  28,  29,  30,  31,  32,  33,  34,  35,  36,  37,  38,  39
  40,  41,  42,  43,  44,  45,  80,  81,  82,  83,  84,  85,  86,  87,  88,  89
  90,  91,  92,  93,  94,  95,  96,  97,  98,  99, 100, 101, 102, 103, 104, 105
 106, 107, 108, 109, 110, 117, 118, 119, 263, 264, 265, 266, 267, 268, 269, 270
 271, 272, 273, 274, 275, 276, 277, 278, 279, 280, 281, 282, 283, 284, 285, 286
 287, 288, 289, 290, 291, 292, 293, 294, 295, 296, 297, 298, 299, 300, 301, 302
 303, 304, 305, 306, 307, 308, 309, 310, 311, 312, 313, 314, 315, 316, 317, 318
 319, 320, 321, 322, 323, 324, 325, 326, 327, 328, 329, 330, 331, 332, 333, 334
 335, 336, 337, 338, 339, 340, 341, 342, 343, 344, 345, 346, 347, 348, 349, 350
 351, 352, 353, 354, 355
*Elset, elset=back
   1,   2,   5,   6,   9,  10,  13,  14,  17,  18,  21,  22,  25,  26,  29,  30
  33,  34,  37,  38,  41,  42,  45,  46,  49,  50,  53,  54,  57,  58,  61,  62
 130, 132, 134, 136, 138, 140, 142, 144, 146, 148, 150, 152, 154, 156, 158, 160
 162, 164, 166, 168, 170, 172, 174, 176, 178, 180, 182, 184, 186, 188, 190, 192
 257, 258, 259, 260, 261, 262, 263, 264, 265, 266, 267, 268, 269, 270, 271, 272
 289, 290, 291, 292, 293, 294, 295, 296, 297, 298, 299, 300, 301, 302, 303, 304
 321, 322, 325, 326, 329, 330, 333, 334, 337, 338, 341, 342, 345, 346, 349, 350
 353, 354, 357, 358, 361, 362, 365, 366, 369, 370, 373, 374, 377, 378, 381, 382
*Nset, nset=left_front_bottom
 4,
*Nset, nset=left_front_top
 8,
*Nset, nset=left_bottom
   4,   6, 114, 115, 116
*Elset, elset=left_bottom
 194, 226, 322, 324
*Nset, nset=outer
   1,   2,   3,   4,   5,   6,   7,   8,   9,  10,  11,  12,  13,  14,  15,  16
  17,  18,  19,  20,  21,  22,  23,  24,  25,  26,  27,  28,  29,  30,  31,  32
  33,  34,  35,  36,  37,  38,  39,  40,  41,  42,  43,  44,  45,  46,  47,  48
  49,  50,  51,  52,  53,  54,  55,  56,  57,  58,  59,  60,  61,  62,  63,  64
  65,  66,  67,  68,  69,  70,  71,  72,  73,  74,  75,  76,  77,  78,  79,  80
  81,  82,  83,  84,  85,  86,  87,  88,  89,  90,  91,  92,  93,  94,  95,  96
  97,  98,  99, 100, 101, 102, 103, 104, 105, 106, 107, 108, 109, 110, 114, 115
 116, 117, 118, 119, 120, 121, 122, 123, 124, 125, 126, 127, 128, 129, 130, 131
 132, 133, 134, 135, 136, 137, 138, 139, 140, 141, 142, 143, 144, 145, 146, 147
 148, 149, 150, 151, 152, 153, 154, 155, 156, 157, 158, 159, 160, 161, 162, 163
 164, 165, 166, 167, 168, 169, 263, 264, 265, 266, 267, 268, 269, 270, 271, 272
 273, 274, 275, 276, 277, 278, 279, 280, 281, 282, 283, 284, 285, 286, 287, 288
 289, 290, 291, 292, 293, 294, 295, 296, 297, 298, 299, 300, 301, 302, 303, 304
 305, 306, 307, 308, 309, 310, 311, 312, 313, 314, 315, 316, 317, 318, 319, 320
 321, 322, 323, 324, 325, 326, 327, 328, 329, 330, 331, 332, 333, 334, 335, 336
 337, 338, 339, 340, 341, 342, 343, 344, 345, 346, 347, 348, 349, 350, 351, 352
 353, 354, 355, 356, 357, 358, 359, 360, 361, 362, 363, 364, 365, 366, 367, 368
 369, 370, 371, 372, 373, 374, 375, 376, 377, 378, 379, 380, 381, 382, 383, 384
 385, 386, 387, 388, 389, 390, 391, 392, 393, 394, 395, 396, 397, 398, 399, 400
 401, 402, 403, 404, 405, 406, 407, 408, 409, 410, 411, 412, 413, 414, 415, 416
** ... 15 like lines cut
*Elset, elset=outer
   1,   2,   3,   4,   5,   6,   9,  10,  13,  14,  17,  18,  21,  22,  25,  26
  29,  30,  33,  34,  37,  38,  41,  42,  45,  46,  49,  50,  53,  54,  57,  58
  61,  62,  65,  66,  67,  68,  70,  72,  74,  76,  78,  80,  82,  84,  86,  88
  90,  92,  94,  96,  98, 100, 102, 104, 106, 108, 110, 112, 114, 116, 118, 120
 122, 124, 126, 128, 129, 130, 131, 132, 133, 134, 136, 137, 138, 140, 141, 142
 144, 145, 146, 148, 149, 150, 152, 153, 154, 156, 157, 158, 160, 161, 162, 164
 165, 166, 168, 169, 170, 172, 173, 174, 176, 177, 178, 180, 181, 182, 184, 185
 186, 188, 189, 190, 192, 194, 196, 198, 200, 202, 204, 206, 208, 210, 212, 214
 216, 218, 220, 222, 224, 226, 228, 230, 232, 234, 236, 238, 240, 242, 244, 246
 248, 250, 252, 254, 256, 257, 258, 259, 260, 261, 262, 263, 264, 265, 266, 267
 268, 269, 270, 271, 272, 289, 290, 291, 292, 293, 294, 295, 296, 297, 298, 299
 300, 301, 302, 303, 304, 321, 322, 324, 325, 326, 328, 329, 330, 332, 333, 334
 336, 337, 338, 340, 341, 342, 344, 345, 346, 348, 349, 350, 352, 353, 354, 356
 357, 358, 360, 361, 362, 364, 365, 366, 368, 369, 370, 372, 373, 374, 376, 377
 378, 380, 381, 382, 384, 385, 386, 387, 388, 389, 390, 393, 394, 397, 398, 401
 402, 405, 406, 409, 410, 413, 414, 417, 418, 421, 422, 425, 426, 429, 430, 433
 434, 437, 438, 441, 442, 445, 446, 449, 450, 451, 452, 454, 456, 458, 460, 462
 464, 466, 468, 470, 472, 474, 476, 478, 480, 482, 484, 486, 488, 490, 492, 494
 496, 498, 500, 502, 504, 506, 508, 510, 512, 513, 514, 515, 516, 517, 518, 520
 521, 522, 524, 525, 526, 528, 529, 530, 532, 533, 534, 536, 537, 538, 540, 541
** ... 9 like lines cut
 *Nset, nset=left_back
   5,   6, 117, 118, 119
*Elset, elset=left_back
 272, 304, 321, 322
***************************************************
*Elset,elset=el_dummy
el_dummy_polyA,el_dummy_polyC
***************************************************
** Constraint: tied
***Tie, name=tied, adjust=yes, no rotation
**s_Set-1_CNS_, m_Set-1_CNS_
*Nset, Nset=ref_node
9999
*Nset, Nset=ref_node2
9998
**
************************************************************************
**			MATERIAL DEFINITION
************************************************************************
**
** Material properties for the real mesh
**
*uel property,elset=el_real_polyA
*******************************************************************
**Gshear      Kbulk	     chi	   D	mu0	     Vmol	     Rgas	theta
<Gshear>,	<Kbulk>,	<chi>,	  <D>,	<mu0>,	<Omega>,	<Rgas>,	<vartheta>,
**
**phi0,             permitt,   DiffP, Ka,      cbarP0,      zP_mob,   DiffN,  cRmaxN
<phi_init0>,	  8.85e-12,   <D1>,  <Ka_COOH>,  <c1_init0_A>,   <z1_val>,     <D2>,  <key0>,
**
**     cbarN0,      zN_mob,           cRf,   zf 	       cOH0       zOH_mob    DiffOH, <omgOH0>
      <c2_init0_A>,   <z2_val>,     <c_bound_A>, <z_bound_A>,     <c3_init0>, <z3_val>, <D3> ,  <omg30>
** 0.25,   -1,     1000,   1,      3,	3
**     nlSdv	ngSdv
		5,	     7
*******************************************************************
********************************************************
*uel property,elset=el_real_polyC
*******************************************************************
**Gshear      Kbulk	     chi	   D	mu0	     Vmol	     Rgas	theta
<Gshear>,	<Kbulk>,	<chi>,	  <D>,	<mu0>,	<Omega>,	<Rgas>,	<vartheta>,
**
**phi0,             permitt,   DiffP, Ka,      cbarP0,      zP_mob,   DiffN,  cRmaxN
<phi_init0>,	  8.85e-12,   <D1>,  <Kb_NH3>,  <c1_init0_B>,   <z1_val>,     <D2>,  <key1>,
**
**     cbarN0,      zN_mob,           cRf,   zf 	       cOH0       zOH_mob    DiffOH, <omgOH0>
      <c2_init0_B>,   <z2_val>,     <c_bound_B>, <z_bound_B>,     <c4_init0>, <z4_val>, <D4> ,  <omg40>
** 0.25,   -1,     1000,   1,      3,	3
**     nlSdv	ngSdv
		5,	     7
********************************************************
** Dummy mesh material properties
**
*Solid section, elset=el_dummy, material=umaterial
***Hourglass Stiffness
**80.e-20
**
*Material, name=umaterial
**
*Elastic
1e-20, 0.3
*User output variables
7
**
** *user material, constant=0
** **
** *Depvar
** 19
** 1, cbar
** 2, T11
** 3, T22
** 4, T12
** 5, T33
** 6, Tes11
** 7, Tes22
** 8, Tes12
** 9, Tes33
** 10, Tme11
** 11, Tme22
** 12, Tme12
** 13, Tme33
** 14, e1
** 15, e2
** 16, j1
** 17, j2
** 18, pbar
** 19, Js
**
**
*Density
1.0
**
*Specific heat
1.0
**
**
************************************************************************
**			BOUNDARY CONDITIONS
************************************************************************
** 2
** right,1,-1.0
** ref_node,1,1.0
**
***EQUATION
**2
**front,3,1.0
**ref_node,3,-1.0
**
***EQUATION
**2
**back,3,1.0
**ref_node2,3,-1.0
************************************************************************
**			INITIAL CONDITIONS
************************************************************************
**
*Initial conditions, type=temperature
nall, 0., <omg_init0_A>, <omg1_init0_A>, <omg2_init0_A>, 0., 0.
**nall_lower,  0., 0., <omg_init0_B>, <omg1_init0_B>, <omg2_init0_B>
**, <omg1_init>, <omg2_init>
************************************************************************
**			AMPLITUDE DEFINITION
************************************************************************
**
*Amplitude, name=amp_1_A
0.,<omg_init0_A>, <tramp>, <omg_init_A>, <tload>, <omg_init_A>
*Amplitude, name=amp_1b_A
0.,<omg1_init0_A>, <tramp>, <omg1_init_A>, <tload>, <omg1_init_A>
*Amplitude, name=amp_1c_A
0.,<omg2_init0_A>, <tramp>, <omg2_init_A>, <tload>, <omg2_init_A>
*Amplitude, name=amp_1d_A
0.,<omg3_init0>, <tramp>, <omg3_init_A>, <tload>, <omg3_init_A>
*Amplitude, name=amp_1_B
0.,<omg_init0_B>, <tramp>, <omg_init_B>
*Amplitude, name=amp_1b_B
0.,<omg1_init0_B>, <tramp>, <omg1_init_B>
*Amplitude, name=amp_1c_B
0.,<omg2_init0_B>, <tramp>, <omg2_init_B>
*Amplitude, name=amp_1d_B
0.,<omg4_init0>, <tramp>, <omg4_init_B>, <tload>, <omg4_init_B>
*******
*Amplitude, name=amp_cycle_A
**, definition= Smooth Step
0.,<omg_init_A>,<tramp>,<omg_sol1>,<tload>,<omg_sol1>
*Amplitude, name=amp_cycle1_A
**, definition= Smooth Step
0.,<omg1_init_A>,<tramp>,<omg1_sol1>,<tload>,<omg1_sol1>
*Amplitude, name=amp_cycle2_A
**, definition= Smooth Step
0.,<omg2_init_A>,<tramp>,<omg2_sol1>,<tload>,<omg2_sol1>
*Amplitude, name=amp_cycle3_A
**, definition= Smooth Step
0.,<omg3_init_A>,<tramp>,<omg3_sol1>,<tload>,<omg3_sol1>
**
*Amplitude, name=amp_cycle_B
**, definition= Smooth Step
0.,<omg_init_B>,<tramp>,<omg_sol1>,<tload>,<omg_sol1>
*Amplitude, name=amp_cycle1_B
**, definition= Smooth Step
0.,<omg1_init_B>,<tramp>,<omg1_sol1>,<tload>,<omg1_sol1>
*Amplitude, name=amp_cycle2_B
**, definition= Smooth Step
0.,<omg2_init_B>,<tramp>,<omg2_sol1>,<tload>,<omg2_sol1>
*Amplitude, name=amp_cycle3_B
**, definition= Smooth Step
0.,<omg4_init_B>,<tramp>,<omg4_sol1>,<tload>,<omg4_sol1>
****
*Amplitude, name=amp_Sol, definition= Smooth Step
0.,<omg_sol1>,<tload1>,<omg_sol2>
*Amplitude, name=amp_pos, definition= Smooth Step
0.,<omg1_sol1>,<tload1>,<omg1_sol2>
*Amplitude, name=amp_neg, definition= Smooth Step
0.,<omg2_sol1>,<tload1>,<omg2_sol2>
*Amplitude, name=amp_pH1, definition= Smooth Step
0.,<omg3_sol1>,<tload1>,<omg3_sol2>,<tload2>,<omg3_sol2>,<tload3>,<omg3_sol3>
<tload4>,<omg3_sol3>
*Amplitude, name=amp_pH2
**, definition= Smooth Step
0.,<omg3_sol2>,<tload1b>,<omg3_sol3>,<tload2b>,<omg3_sol3>
*Amplitude, name=amp_pH3, definition= Smooth Step
0.,<omg3_sol3>,<tload0b>,<omg3_sol2>,<tload1b>,<omg3_sol4>,<tload2b>,<omg3_sol4>
**,<tload3>,<omg3_sol1>
**<tload4>,<omg3_sol1>
*Amplitude, name=amp_pH1_, definition= Smooth Step
0.,<omg4_sol1>,<tload1>,<omg4_sol2>,<tload2>,<omg4_sol2>,<tload3>,<omg4_sol3>
<tload4>,<omg4_sol3>
*Amplitude, name=amp_pH2_
**, definition= Smooth Step
0.,<omg4_sol2>,<tload1b>,<omg4_sol3>,<tload2b>,<omg4_sol3>,<tload3>,<omg4_sol1>
<tload4>,<omg4_sol1>
*Amplitude, name=amp_pH3_, definition= Smooth Step
0.,<omg4_sol3>,<tload0b>,<omg4_sol2>,<tload1b>,<omg4_sol4>,<tload2b>,<omg4_sol4>
************************************************************************
**			STEP DEFINITION
************************************************************************
************************************************************************
*Step, Name=swell, nlgeom=yes, inc=50000
*Coupled temperature-displacement, deltmx=2000, stabilize, factor=0.001
<ti>,<tload>,<tmin>,<tlim>
*CONTROLS, PARAMETERS=TIME INCREMENTATION
,,,,,,,30,,,,,,
***Solution technique, type=separated
***CONTROLS, PARAMETERS=LINE SEARCH
**10,1.0,0.0001,0.25,0.10
**
** 	DISPLACEMENT B.C.
*Boundary,op=mod
left,1,1,0.
left_bottom,2,2,0.
left_back,3,3,0.
**left_front_bottom,2,2,0.
**back,3,3,0.
**front,3,3
**left_back_bottom,2,3
**left_front_bottom,2,2
**
**nall,12,12,0.
**nall,4,4,0.
*Boundary,amplitude=amp_1_A
nall,12,12,1.
*Boundary,amplitude=amp_1b_A
nall,13,13,1.
*Boundary,amplitude=amp_1c_A
nall,14,14,1.
*Boundary,amplitude=amp_1d_A
nall,15,15,1.
*Boundary,amplitude=amp_1d_B
nall,16,16,1.
**
**
**	OUTPUTS
**
*Output, field
**, number interval=40
*node output, nset=nall
u,nt
*Element output, elset=el_dummy
le,UVARM
**
*Output, history
*Element output, elset=el_dummy
UVARM1
***Node output, nset=ref_node
**rf2
*End Step
************************************************************************
*Step, Name=equilibriate1, nlgeom=yes, inc=50000
*Coupled temperature-displacement, deltmx=2000, stabilize, factor=0.001
<ti>,<tload>,<tmin>,<tlim>
*CONTROLS, PARAMETERS=TIME INCREMENTATION
,,,,,,,30,,,,,,
***Solution technique, type=separated
*CONTROLS, PARAMETERS=LINE SEARCH
10,1.0,0.0001,0.25,0.10
**
** 	DISPLACEMENT B.C.
*Boundary,op=new
left,1,1,0.
left_bottom,2,2,0.
**left_back,3,3,0.
left_back_bottom,2,3,0.
**left_front_bottom,2,2,0.
**back,3,3,0.
**left_back_bottom,2,3
**left_front_bottom,2,2
**
**nall,5,5,0.
**nall_upper,12,12,0.
**nall_lower,12,12,0.
**nall,4,4,0.
**nall,12,12,<omg1_init>
**nall,13,13,<omg2_init>
**nall,11,11,<omg_init>
**
*Boundary,amplitude=amp_cycle_A,op=new
nall,12,12,1.
outer,12,12,1.
*Boundary,amplitude=amp_cycle1_A,op=new
nall,13,13,1.
outer,13,13,1.
*Boundary,amplitude=amp_cycle2_A,op=new
nall,14,14,1.
outer,14,14,1.
*Boundary,amplitude=amp_cycle3_A,op=new
nall,15,15,1.
outer,15,15,1.
*Boundary,amplitude=amp_cycle3_B,op=new
nall,16,16,1.
outer,16,16,1.
**
**	OUTPUTS
**
*Output, field
**, number interval=40
*node output, nset=nall
u,nt
*Element output, elset=el_dummy
le,UVARM
**
*Output, history
***Node output, nset=ref_node
**rf2
*End Step
************************************************************************
************************************************************************
*Step, Name=equilibrate2, nlgeom=yes, inc=50000
*Coupled temperature-displacement, deltmx=2000, stabilize
**, stabilize, factor=0.005
<ti>,<tload2>,<tmin>,<tlim2>
*CONTROLS, PARAMETERS=TIME INCREMENTATION
,,,,,,,30,,,,,,
***Solution technique, type=separated
*CONTROLS, PARAMETERS=LINE SEARCH
10,1.0,0.0001,0.25,0.10
**
** 	DISPLACEMENT B.C.
*Boundary,op=new,type=velocity
left,1,1,0.
left_bottom,2,2,0.
**left_back,3,3,0.
left_back_bottom,2,3,0.
**back,3,3,0.
**back,3,3
**bottom,2,2
**left_back_bottom,2,3
**left_front_bottom,2,2
**
*Boundary, amplitude=amp_sol, op=new
outer,12,12,1.
*Boundary, amplitude = amp_pos, op=new
outer,13,13,1.
*Boundary, amplitude = amp_neg, op=new
outer,14,14,1.
**
*Boundary,amplitude=amp_pH1,op=new
outer,15,15,1.
*Boundary,amplitude=amp_pH1_,op=new
outer,16,16,1.
**
**	OUTPUTS
**
*Output, field
**, number interval=40
*node output, nset=nall
u,nt
*Element output, elset=el_dummy
le,UVARM
**
*Output, history
***Node output, nset=ref_node
**rf2
*End Step
************************************************************************
*Step, Name=increase, nlgeom=yes, inc=50000
*Coupled temperature-displacement, deltmx=2000
**, stabilize, factor= 0.005
<ti>,<tload2b>,<tmin>,0.25
*CONTROLS, PARAMETERS=TIME INCREMENTATION
,,,,,,,30,,,,,,
***Solution technique, type=separated
*CONTROLS, PARAMETERS=LINE SEARCH
10,1.0,0.0001,0.25,0.10
**
** 	DISPLACEMENT B.C.
*Boundary,op=new,type=velocity
left,1,1,0.
left_bottom,2,2,0.
**left_back,3,3,0.
left_back_bottom,2,3,0.
**back,3,3,0.
**back,3,3
**bottom,2,2
**left_back_bottom,2,3
**left_front_bottom,2,2
**
*Boundary, op=new
outer,12,12,<omg_sol2>
outer,13,13,<omg1_sol2>
outer,14,14,<omg2_sol2>
**
*Boundary,amplitude=amp_pH2,op=new
outer,15,15,1.
*Boundary, amplitude=amp_pH2_,op=new
outer,16,16,1.
**
**	OUTPUTS
**
*Output, field
**, number interval=40
*node output, nset=nall
u,nt
*Element output, elset=el_dummy
le,UVARM
**
*Output, history
***Node output, nset=ref_node
**rf2
*End Step
************************************************************************
*Step, Name=decrease, nlgeom=yes, inc=50000
*Coupled temperature-displacement, deltmx=2000
**, stabilize
<ti>,<tload2b>,<tmin>,0.25
*CONTROLS, PARAMETERS=TIME INCREMENTATION
,,,,,,,30,,,,,,
***Solution technique, type=separated
*CONTROLS, PARAMETERS=LINE SEARCH
10,1.0,0.0001,0.25,0.10
**
** 	DISPLACEMENT B.C.
*Boundary,op=new,type=velocity
left,1,1,0.
left_bottom,2,2,0.
**left_back,3,3,0.
left_back_bottom,2,3,0.
**back,3,3,0.
**back,3,3
**bottom,2,2
**left_back_bottom,2,3
**left_front_bottom,2,2
**
*Boundary, op=new
outer,12,12,<omg_sol2>
outer,13,13,<omg1_sol2>
outer,14,14,<omg2_sol2>
**
*Boundary,amplitude=amp_pH3,op=new
outer,15,15,1.
*Boundary, amplitude=amp_pH3_,op=new
outer,16,16,1.
**
**	OUTPUTS
**
*Output, field
**, number interval=40
*node output, nset=nall
u,nt
*Element output, elset=el_dummy
le,UVARM
**
*Output, history
***Node output, nset=ref_node
**rf2
*End Step
************************************************************************