******************************************************
*Heading
Bi-material beam study
**
**	UNITS:	SI
************************************************************************
**			PARAMETERS
************************************************************************
*Parameter
**
** total simulation time (seconds)
tramp = 3600*2.
tload = 3600*5.
tlim = tramp/40.
tlim2 = tlim/2
**
deltload = 400.
deltload2 = 7.5
tload0b = deltload2
tload1b = deltload2*2 
tload2b = 60.
tday = 24*3600.
tload1 = deltload
tload2 = 3000.
tload3 = tload2 + deltload
tload4 = 2*tload2
tload5 = 2*tday + 2*deltload
tload6 = 3*tday
tlim2 = tload2/30
**
** Total strain
eps = 0.2
** 
** Strain rate
epsdot = eps/tload
** 
** Velocity
vel2 = epsdot*1e-3
**
** inital time step
ti = tload/1e7
** 
** max time step
tmax = tload/500
**
** min time step
tmin = 1e-15
**
*******************************
Eyoung = 2.9*75.e3
anu = 0.45
Gshear = 100.e3
**72.5e3/2.
**75.e3
Kbulk = Gshear*10
**72.5e4
**750.e3
*******************************
mu0 = 0
**
c1_st = 10000.
c2_st = 10000.
**
c1_init0_A = 1500.
**1500.
c2_init0_A = 5.
c1_init0_B = 5.
c2_init0_B = 1500.
c1_init0_C = 5.
c2_init0_C = 5.
c3_init0 = 0.5625*1.e-5*1.e3
c4_init0 = 0.1778*1.e-7*1.e3
**1480.
**
Ka_COOH = 0.3162*1.e-4*1.e3
Ka_none = 1.e-15*1.e3
Kb_NH3  = 1.e-6*1.e3
phi_init0 = 0.999
**
**cbar_bound = 0.15
c_bound_A = c1_init0_A - c2_init0_A + c3_init0
c_bound_B = c2_init0_B - c1_init0_B + c4_init0
c_bound_C = 0.
**+ c3_init0
**1600.
**
Rgas = 8.314
vartheta = 298
**omg_init = mu0 + Rgas*vartheta*log(cbar0)
**
*********************
z_val = 0.
z1_val = 1.
z2_val = -1.
z3_val = 1.
z4_val = -1.
z_bound_A = -1.
z_bound_B = 1.
z_bound_C = -1.
Farad = 96485.
********************
**
Omega = 1.8e-5
**21.e-5
D  = 1.7e-6
**2.e-5
D1 = 4.e-8
**1.e-8
**1.e-6
D2 = 4.e-8
**1.e-8
**1.e-6
D3 = 7.e-7
D4 = 7.e-7
**
key0 = 0.
key1 = 1.
**
chi = 0.4
omg_init0_A  = mu0 + Rgas*vartheta*(log(1-phi_init0)+ phi_init0*(1+chi*phi_init0)-Omega*(c1_init0_A+c2_init0_A+c3_init0)*(phi_init0)/(1-phi_init0))
**
omg1_init0_A = mu0 + Rgas*vartheta*log(Omega*c1_init0_A*(phi_init0)/(1-phi_init0))
omg2_init0_A = mu0 + Rgas*vartheta*log(Omega*c2_init0_A*(phi_init0)/(1-phi_init0))
**
omg_init0_B  = mu0 + Rgas*vartheta*(log(1-phi_init0)+ phi_init0*(1+chi*phi_init0)-Omega*(c1_init0_B+c2_init0_B+c4_init0)*(phi_init0)/(1-phi_init0))
**
omg1_init0_B = mu0 + Rgas*vartheta*log(Omega*c1_init0_B*(phi_init0)/(1-phi_init0))
omg2_init0_B = mu0 + Rgas*vartheta*log(Omega*c2_init0_B*(phi_init0)/(1-phi_init0))
**
omg3_init0 = 0.
omg30 = -Rgas*vartheta*log(Omega*c3_init0*(phi_init0)/(1-phi_init0))
** 
**
omg4_init0 = 0.
omg40 = -Rgas*vartheta*log(Omega*c4_init0*(phi_init0)/(1-phi_init0))
** *(phi_init0)/(1-phi_init0)
**
phi_init = 1/3.2
**1/3.215
c1_init_A = c1_init0_A
**
c2_init_A = c2_init0_A
**
c1_init_B = c1_init0_B
**
c2_init_B = c2_init0_B
**
omg_init_A  = mu0 + Rgas*vartheta*(log(1-phi_init)+ phi_init*(1+chi*phi_init)-Omega*(c1_init_A+c2_init_A+c3_init0)*(phi_init)/(1-phi_init))
**
omg1_init_A = mu0 + Rgas*vartheta*log(Omega*c1_init_A*(phi_init)/(1-phi_init))
omg2_init_A = mu0 + Rgas*vartheta*log(Omega*c2_init_A*(phi_init)/(1-phi_init))
omg3_init_A = omg30 + Rgas*vartheta*log(Omega*c3_init0)
** *phi_init/(1-phi_init)
**
omg_init_B  = mu0 + Rgas*vartheta*(log(1-phi_init)+ phi_init*(1+chi*phi_init)-Omega*(c1_init_B+c2_init_B+c4_init0)*(phi_init)/(1-phi_init))
**
omg1_init_B = mu0 + Rgas*vartheta*log(Omega*c1_init_B*(phi_init)/(1-phi_init))
omg2_init_B = mu0 + Rgas*vartheta*log(Omega*c2_init_B*(phi_init)/(1-phi_init))
omg4_init_B = omg40 + Rgas*vartheta*log(Omega*c4_init0)
**
c1_sol1 = 500.
c3_sol1 = 0.5625*1.e-6*1.e3
c4_sol1 = 0.1778*1.e-7*1.e3
c2_sol1 = 500.
**
**omg_sol1 = omg_init
**omg1_sol1 = omg1_init
**omg2_sol1 = omg2_init
**
**omg_init=omg_init0
**omg1_init=omg1_init0
**omg2_init=omg2_init0
**
omg_sol1 = mu0 - Rgas*vartheta*Omega*(c1_sol1+c2_sol1+c3_sol1) 
**omg_sol1 = 0.9*omg_init
omg1_sol1 = mu0 +  Rgas*vartheta*log(Omega*c1_sol1)
omg2_sol1 = mu0 +  Rgas*vartheta*log(Omega*c2_sol1)
********************
omg3_sol1 = omg30 + Rgas*vartheta*log(Omega*c3_sol1)
omg4_sol1 = omg40 + Rgas*vartheta*log(Omega*c4_sol1)
**
c3_sol2 = 0.5625*1.e-6*1.e3
omg3_sol2 = omg30 + Rgas*vartheta*log(Omega*c3_sol2)
c4_sol2 = 0.1778*1.e-7*1.e3
omg4_sol2 = omg40 + Rgas*vartheta*log(Omega*c4_sol2)
**
c3_sol3 = 0.5625*1.e-8*1.e3
omg3_sol3 = omg30 + Rgas*vartheta*log(Omega*c3_sol3)
c4_sol3 = 0.1778*1.e-5*1.e3
omg4_sol3 = omg40 + Rgas*vartheta*log(Omega*c4_sol3)
**
c3_sol4 = 0.5625*1.e-4*1.e3
omg3_sol4 = omg30 + Rgas*vartheta*log(Omega*c3_sol4)
c4_sol4 = 0.1778*1.e-9*1.e3
omg4_sol4 = omg40 + Rgas*vartheta*log(Omega*c4_sol4)
********************
c1_sol2 = 100.
c2_sol2 = 100.
**
omg_sol2  = mu0 - Rgas*vartheta*Omega*(c1_sol2+c2_sol2) 
omg1_sol2 = mu0 +  Rgas*vartheta*log(Omega*c1_sol2)
omg2_sol2 = mu0 +  Rgas*vartheta*log(Omega*c2_sol2)
***************
omg_diff1 = omg_sol1-omg_sol2
omg1_diff1 = omg1_sol1-omg1_sol2
omg2_diff1 = omg2_sol1-omg2_sol2
**
omg_diff2 = omg_sol2-omg_sol1
omg1_diff2 = omg1_sol2-omg1_sol1
omg2_diff2 = omg2_sol2-omg2_sol1
**
** Integer parameters
nlSdv = 3
ngSdv = 3
nInt = 4
nvars = nlSdv*nInt
**
** ~~~~~~~~~~~~~~~~~~~~~~~~~~~~~~~~~~~~~~~~~~~~~~~~~~~~~~~~~~~~~~~~~~~~~
** 			INPUTS
** ~~~~~~~~~~~~~~~~~~~~~~~~~~~~~~~~~~~~~~~~~~~~~~~~~~~~~~~~~~~~~~~~~~~~~
**
** major dimensions of plate (m)
xlength = 1.69e-3
**
ylength = 6.77e-3/2
**
** number of elements along each direction
xElem = 10
yElem = 10
**
**
** ~~~~~~~~~~~~~~~~~~~~~~~~~~~~~~~~~~~~~~~~~~~~~~~~~~~~~~~~~~~~~~~~~~~~~
** 			GEOMETRY GENERATION
** ~~~~~~~~~~~~~~~~~~~~~~~~~~~~~~~~~~~~~~~~~~~~~~~~~~~~~~~~~~~~~~~~~~~~~
**
**
** Nodes at the vertices:
*Node, nset = nall
1,0.00499999989,2.99999993e-05,0
2,0.00499999989,2.99999993e-05,0.000149999996
3,0.00499999989,0,0.000149999996
4,0.00499999989,0,0
5,0,2.99999993e-05,0.000149999996
6,0,0,0.000149999996
7,0,0,0
8,0,2.99999993e-05,0
9,0.00499999989,5.99999985e-05,0
10,0.00499999989,5.99999985e-05,0.000149999996
11,0,5.99999985e-05,0
12,0,5.99999985e-05,0.000149999996
13,0.00499999989,2.99999993e-05,5.00000005e-05
14,0.00499999989,2.99999993e-05,0.000100000001
15,0.00499999989,1.49999996e-05,0.000149999996
16,0.00499999989,0,0.000100000001
17,0.00499999989,0,5.00000005e-05
18,0.00499999989,1.49999996e-05,0
19,0,2.99999993e-05,0.000100000001
20,0,2.99999993e-05,5.00000005e-05
** ... 640 like lines cut
**
**
**
** Declare user element
*User Element,Nodes=8,Type=U1,Iproperties=2,Properties=24,Coordinates=3,Variables=40,Unsymm
1,2,3,11,12,13,14,15,16
**
*element, type=U1, elset=el_real_polyA
  1,  86, 285, 537, 223,   1,  13, 219,  18
  2, 285, 286, 538, 537,  13,  14, 220, 219
  3, 286, 118, 254, 538,  14,   2,  15, 220
  4, 223, 537, 347,  25,  18, 219,  17,   4
  5, 537, 538, 348, 347, 219, 220,  16,  17
  6, 538, 254, 117, 348, 220,  15,   3,  16
  7,  85, 287, 539, 224,  86, 285, 537, 223
  8, 287, 288, 540, 539, 285, 286, 538, 537
  9, 288, 119, 255, 540, 286, 118, 254, 538
 10, 224, 539, 349,  26, 223, 537, 347,  25
 11, 539, 540, 350, 349, 537, 538, 348, 347
 12, 540, 255, 116, 350, 538, 254, 117, 348
 13,  84, 289, 541, 225,  85, 287, 539, 224
 14, 289, 290, 542, 541, 287, 288, 540, 539
 15, 290, 120, 256, 542, 288, 119, 255, 540
 16, 225, 541, 351,  27, 224, 539, 349,  26
 17, 541, 542, 352, 351, 539, 540, 350, 349
 18, 542, 256, 115, 352, 540, 255, 116, 350
 19,  83, 291, 543, 226,  84, 289, 541, 225
 20, 291, 292, 544, 543, 289, 290, 542, 541
** ... 172 like lines cut
**
** call to *elgen which meshes the plate geometry
** "Master Element" for *Elgen
*element, type=C3D8H, elset=el_dummy_polyA
10001,86,285,537,223,1,13,219,18
10002,285,286,538,537,13,14,220,219
10003,286,118,254,538,14,2,15,220
10004,223,537,347,25,18,219,17,4
10005,537,538,348,347,219,220,16,17
10006,538,254,117,348,220,15,3,16
10007,85,287,539,224,86,285,537,223
10008,287,288,540,539,285,286,538,537
10009,288,119,255,540,286,118,254,538
10010,224,539,349,26,223,537,347,25
10011,539,540,350,349,537,538,348,347
10012,540,255,116,350,538,254,117,348
10013,84,289,541,225,85,287,539,224
10014,289,290,542,541,287,288,540,539
10015,290,120,256,542,288,119,255,540
10016,225,541,351,27,224,539,349,26
10017,541,542,352,351,539,540,350,349
10018,542,256,115,352,540,255,116,350
10019,83,291,543,226,84,289,541,225
10020,291,292,544,543,289,290,542,541
** ... 172 like lines cut
**
*element, type=U1, elset=el_real_polyC
193, 118, 286, 599, 413,   2,  14, 409, 152
194, 286, 285, 600, 599,  14,  13, 410, 409
195, 285,  86, 444, 600,  13,   1, 149, 410
196, 413, 599, 475, 157, 152, 409, 151,  10
197, 599, 600, 476, 475, 409, 410, 150, 151
198, 600, 444, 218, 476, 410, 149,   9, 150
199, 119, 288, 601, 414, 118, 286, 599, 413
200, 288, 287, 602, 601, 286, 285, 600, 599
201, 287,  85, 445, 602, 285,  86, 444, 600
202, 414, 601, 477, 158, 413, 599, 475, 157
203, 601, 602, 478, 477, 599, 600, 476, 475
204, 602, 445, 217, 478, 600, 444, 218, 476
205, 120, 290, 603, 415, 119, 288, 601, 414
206, 290, 289, 604, 603, 288, 287, 602, 601
207, 289,  84, 446, 604, 287,  85, 445, 602
208, 415, 603, 479, 159, 414, 601, 477, 158
209, 603, 604, 480, 479, 601, 602, 478, 477
210, 604, 446, 216, 480, 602, 445, 217, 478
211, 121, 292, 605, 416, 120, 290, 603, 415
212, 292, 291, 606, 605, 290, 289, 604, 603
** ... 172 like lines cut
**
** call to *elgen which meshes the plate geometry
** "Master Element" for *Elgen
*element, type=C3D8H, elset=el_dummy_polyC
10193,118,286,599,413,2,14,409,152
10194,286,285,600,599,14,13,410,409
10195,285,86,444,600,13,1,149,410
10196,413,599,475,157,152,409,151,10
10197,599,600,476,475,409,410,150,151
10198,600,444,218,476,410,149,9,150
10199,119,288,601,414,118,286,599,413
10200,288,287,602,601,286,285,600,599
10201,287,85,445,602,285,86,444,600
10202,414,601,477,158,413,599,475,157
10203,601,602,478,477,599,600,476,475
10204,602,445,217,478,600,444,218,476
10205,120,290,603,415,119,288,601,414
10206,290,289,604,603,288,287,602,601
10207,289,84,446,604,287,85,445,602
10208,415,603,479,159,414,601,477,158
10209,603,604,480,479,601,602,478,477
10210,604,446,216,480,602,445,217,478
10211,121,292,605,416,120,290,603,415
10212,292,291,606,605,290,289,604,603
** ... 172 like lines cut
**
*****************************
**
*Nset, nset=bottom
   3,   4,   6,   7,  16,  17,  22,  23,  25,  26,  27,  28,  29,  30,  31,  32
  33,  34,  35,  36,  37,  38,  39,  40,  41,  42,  43,  44,  45,  46,  47,  48
  49,  50,  51,  52,  53,  54,  55,  87,  88,  89,  90,  91,  92,  93,  94,  95
  96,  97,  98,  99, 100, 101, 102, 103, 104, 105, 106, 107, 108, 109, 110, 111
 112, 113, 114, 115, 116, 117, 347, 348, 349, 350, 351, 352, 353, 354, 355, 356
 357, 358, 359, 360, 361, 362, 363, 364, 365, 366, 367, 368, 369, 370, 371, 372
 373, 374, 375, 376, 377, 378, 379, 380, 381, 382, 383, 384, 385, 386, 387, 388
 389, 390, 391, 392, 393, 394, 395, 396, 397, 398, 399, 400, 401, 402, 403, 404
 405, 406, 407, 408
*Elset, elset=bottom
   4,   5,   6,  10,  11,  12,  16,  17,  18,  22,  23,  24,  28,  29,  30,  34
  35,  36,  40,  41,  42,  46,  47,  48,  52,  53,  54,  58,  59,  60,  64,  65
  66,  70,  71,  72,  76,  77,  78,  82,  83,  84,  88,  89,  90,  94,  95,  96
 100, 101, 102, 106, 107, 108, 112, 113, 114, 118, 119, 120, 124, 125, 126, 130
 131, 132, 136, 137, 138, 142, 143, 144, 148, 149, 150, 154, 155, 156, 160, 161
 162, 166, 167, 168, 172, 173, 174, 178, 179, 180, 184, 185, 186, 190, 191, 192
*Nset, nset=top
   9,  10,  11,  12, 150, 151, 154, 155, 157, 158, 159, 160, 161, 162, 163, 164
 165, 166, 167, 168, 169, 170, 171, 172, 173, 174, 175, 176, 177, 178, 179, 180
 181, 182, 183, 184, 185, 186, 187, 188, 189, 190, 191, 192, 193, 194, 195, 196
 197, 198, 199, 200, 201, 202, 203, 204, 205, 206, 207, 208, 209, 210, 211, 212
 213, 214, 215, 216, 217, 218, 475, 476, 477, 478, 479, 480, 481, 482, 483, 484
 485, 486, 487, 488, 489, 490, 491, 492, 493, 494, 495, 496, 497, 498, 499, 500
 501, 502, 503, 504, 505, 506, 507, 508, 509, 510, 511, 512, 513, 514, 515, 516
 517, 518, 519, 520, 521, 522, 523, 524, 525, 526, 527, 528, 529, 530, 531, 532
 533, 534, 535, 536
*Elset, elset=top
 196, 197, 198, 202, 203, 204, 208, 209, 210, 214, 215, 216, 220, 221, 222, 226
 227, 228, 232, 233, 234, 238, 239, 240, 244, 245, 246, 250, 251, 252, 256, 257
 258, 262, 263, 264, 268, 269, 270, 274, 275, 276, 280, 281, 282, 286, 287, 288
 292, 293, 294, 298, 299, 300, 304, 305, 306, 310, 311, 312, 316, 317, 318, 322
 323, 324, 328, 329, 330, 334, 335, 336, 340, 341, 342, 346, 347, 348, 352, 353
 354, 358, 359, 360, 364, 365, 366, 370, 371, 372, 376, 377, 378, 382, 383, 384
*Nset, nset=left
   5,   6,   7,   8,  11,  12,  19,  20,  21,  22,  23,  24, 153, 154, 155, 156
 221, 222, 411, 412
*Elset, elset=left
 187, 188, 189, 190, 191, 192, 379, 380, 381, 382, 383, 384
*Nset, nset=left_back_bottom
 7,
*Nset, nset=right
   1,   2,   3,   4,   9,  10,  13,  14,  15,  16,  17,  18, 149, 150, 151, 152
 219, 220, 409, 410
*Elset, elset=right
   1,   2,   3,   4,   5,   6, 193, 194, 195, 196, 197, 198
*Nset, nset=front
   2,   3,   5,   6,  10,  12,  15,  21,  87,  88,  89,  90,  91,  92,  93,  94
  95,  96,  97,  98,  99, 100, 101, 102, 103, 104, 105, 106, 107, 108, 109, 110
 111, 112, 113, 114, 115, 116, 117, 118, 119, 120, 121, 122, 123, 124, 125, 126
 127, 128, 129, 130, 131, 132, 133, 134, 135, 136, 137, 138, 139, 140, 141, 142
 143, 144, 145, 146, 147, 148, 152, 156, 157, 158, 159, 160, 161, 162, 163, 164
 165, 166, 167, 168, 169, 170, 171, 172, 173, 174, 175, 176, 177, 178, 179, 180
 181, 182, 183, 184, 185, 186, 187, 254, 255, 256, 257, 258, 259, 260, 261, 262
 263, 264, 265, 266, 267, 268, 269, 270, 271, 272, 273, 274, 275, 276, 277, 278
 279, 280, 281, 282, 283, 284, 413, 414, 415, 416, 417, 418, 419, 420, 421, 422
 423, 424, 425, 426, 427, 428, 429, 430, 431, 432, 433, 434, 435, 436, 437, 438
 439, 440, 441, 442, 443
*Elset, elset=front
   3,   6,   9,  12,  15,  18,  21,  24,  27,  30,  33,  36,  39,  42,  45,  48
  51,  54,  57,  60,  63,  66,  69,  72,  75,  78,  81,  84,  87,  90,  93,  96
  99, 102, 105, 108, 111, 114, 117, 120, 123, 126, 129, 132, 135, 138, 141, 144
 147, 150, 153, 156, 159, 162, 165, 168, 171, 174, 177, 180, 183, 186, 189, 192
 193, 196, 199, 202, 205, 208, 211, 214, 217, 220, 223, 226, 229, 232, 235, 238
 241, 244, 247, 250, 253, 256, 259, 262, 265, 268, 271, 274, 277, 280, 283, 286
 289, 292, 295, 298, 301, 304, 307, 310, 313, 316, 319, 322, 325, 328, 331, 334
 337, 340, 343, 346, 349, 352, 355, 358, 361, 364, 367, 370, 373, 376, 379, 382
*Nset, nset=back
   1,   4,   7,   8,   9,  11,  18,  24,  25,  26,  27,  28,  29,  30,  31,  32
  33,  34,  35,  36,  37,  38,  39,  40,  41,  42,  43,  44,  45,  46,  47,  48
  49,  50,  51,  52,  53,  54,  55,  56,  57,  58,  59,  60,  61,  62,  63,  64
  65,  66,  67,  68,  69,  70,  71,  72,  73,  74,  75,  76,  77,  78,  79,  80
  81,  82,  83,  84,  85,  86, 149, 153, 188, 189, 190, 191, 192, 193, 194, 195
 196, 197, 198, 199, 200, 201, 202, 203, 204, 205, 206, 207, 208, 209, 210, 211
 212, 213, 214, 215, 216, 217, 218, 223, 224, 225, 226, 227, 228, 229, 230, 231
 232, 233, 234, 235, 236, 237, 238, 239, 240, 241, 242, 243, 244, 245, 246, 247
 248, 249, 250, 251, 252, 253, 444, 445, 446, 447, 448, 449, 450, 451, 452, 453
 454, 455, 456, 457, 458, 459, 460, 461, 462, 463, 464, 465, 466, 467, 468, 469
 470, 471, 472, 473, 474
*Elset, elset=back
   1,   4,   7,  10,  13,  16,  19,  22,  25,  28,  31,  34,  37,  40,  43,  46
  49,  52,  55,  58,  61,  64,  67,  70,  73,  76,  79,  82,  85,  88,  91,  94
  97, 100, 103, 106, 109, 112, 115, 118, 121, 124, 127, 130, 133, 136, 139, 142
 145, 148, 151, 154, 157, 160, 163, 166, 169, 172, 175, 178, 181, 184, 187, 190
 195, 198, 201, 204, 207, 210, 213, 216, 219, 222, 225, 228, 231, 234, 237, 240
 243, 246, 249, 252, 255, 258, 261, 264, 267, 270, 273, 276, 279, 282, 285, 288
 291, 294, 297, 300, 303, 306, 309, 312, 315, 318, 321, 324, 327, 330, 333, 336
 339, 342, 345, 348, 351, 354, 357, 360, 363, 366, 369, 372, 375, 378, 381, 384
*Nset, nset=left_front_bottom
 6,
*Nset, nset=left_front_top
 12,
*Nset, nset=outer
   1,   2,   3,   4,   5,   6,   7,   9,  10,  11,  12,  13,  14,  15,  16,  17
  18,  21,  22,  23,  25,  26,  27,  28,  29,  30,  31,  32,  33,  34,  35,  36
  37,  38,  39,  40,  41,  42,  43,  44,  45,  46,  47,  48,  49,  50,  51,  52
  53,  54,  55,  87,  88,  89,  90,  91,  92,  93,  94,  95,  96,  97,  98,  99
 100, 101, 102, 103, 104, 105, 106, 107, 108, 109, 110, 111, 112, 113, 114, 115
 116, 117, 118, 119, 120, 121, 122, 123, 124, 125, 126, 127, 128, 129, 130, 131
 132, 133, 134, 135, 136, 137, 138, 139, 140, 141, 142, 143, 144, 145, 146, 147
 148, 149, 150, 151, 152, 154, 155, 156, 157, 158, 159, 160, 161, 162, 163, 164
 165, 166, 167, 168, 169, 170, 171, 172, 173, 174, 175, 176, 177, 178, 179, 180
 181, 182, 183, 184, 185, 186, 187, 188, 189, 190, 191, 192, 193, 194, 195, 196
 197, 198, 199, 200, 201, 202, 203, 204, 205, 206, 207, 208, 209, 210, 211, 212
 213, 214, 215, 216, 217, 218, 219, 220, 254, 255, 256, 257, 258, 259, 260, 261
 262, 263, 264, 265, 266, 267, 268, 269, 270, 271, 272, 273, 274, 275, 276, 277
 278, 279, 280, 281, 282, 283, 284, 347, 348, 349, 350, 351, 352, 353, 354, 355
 356, 357, 358, 359, 360, 361, 362, 363, 364, 365, 366, 367, 368, 369, 370, 371
 372, 373, 374, 375, 376, 377, 378, 379, 380, 381, 382, 383, 384, 385, 386, 387
 388, 389, 390, 391, 392, 393, 394, 395, 396, 397, 398, 399, 400, 401, 402, 403
 404, 405, 406, 407, 408, 409, 410, 413, 414, 415, 416, 417, 418, 419, 420, 421
 422, 423, 424, 425, 426, 427, 428, 429, 430, 431, 432, 433, 434, 435, 436, 437
 438, 439, 440, 441, 442, 443, 475, 476, 477, 478, 479, 480, 481, 482, 483, 484
** ... 4 like lines cut
*Elset, elset=outer
   1,   2,   3,   4,   5,   6,   9,  10,  11,  12,  15,  16,  17,  18,  21,  22
  23,  24,  27,  28,  29,  30,  33,  34,  35,  36,  39,  40,  41,  42,  45,  46
  47,  48,  51,  52,  53,  54,  57,  58,  59,  60,  63,  64,  65,  66,  69,  70
  71,  72,  75,  76,  77,  78,  81,  82,  83,  84,  87,  88,  89,  90,  93,  94
  95,  96,  99, 100, 101, 102, 105, 106, 107, 108, 111, 112, 113, 114, 117, 118
 119, 120, 123, 124, 125, 126, 129, 130, 131, 132, 135, 136, 137, 138, 141, 142
 143, 144, 147, 148, 149, 150, 153, 154, 155, 156, 159, 160, 161, 162, 165, 166
 167, 168, 171, 172, 173, 174, 177, 178, 179, 180, 183, 184, 185, 186, 189, 190
 191, 192, 193, 194, 195, 196, 197, 198, 199, 202, 203, 204, 205, 208, 209, 210
 211, 214, 215, 216, 217, 220, 221, 222, 223, 226, 227, 228, 229, 232, 233, 234
 235, 238, 239, 240, 241, 244, 245, 246, 247, 250, 251, 252, 253, 256, 257, 258
 259, 262, 263, 264, 265, 268, 269, 270, 271, 274, 275, 276, 277, 280, 281, 282
 283, 286, 287, 288, 289, 292, 293, 294, 295, 298, 299, 300, 301, 304, 305, 306
 307, 310, 311, 312, 313, 316, 317, 318, 319, 322, 323, 324, 325, 328, 329, 330
 331, 334, 335, 336, 337, 340, 341, 342, 343, 346, 347, 348, 349, 352, 353, 354
 355, 358, 359, 360, 361, 364, 365, 366, 367, 370, 371, 372, 373, 376, 377, 378
 379, 382, 383, 384
*Nset, nset=left_bottom
  6,  7, 22, 23
*Elset, elset=left_bottom, generate
 190,  192,    1
***************************************************
*Elset,elset=el_dummy
el_dummy_polyA,el_dummy_polyC
***************************************************
** Constraint: tied
***Tie, name=tied, adjust=yes, no rotation
**s_Set-1_CNS_, m_Set-1_CNS_
*Nset, Nset=ref_node
9999
*Nset, Nset=ref_node2
9998
**
************************************************************************
**			MATERIAL DEFINITION
************************************************************************
**
** Material properties for the real mesh
**
*uel property,elset=el_real_polyA
*******************************************************************
**Gshear      Kbulk	     chi	   D	mu0	     Vmol	     Rgas	theta
<Gshear>,	<Kbulk>,	<chi>,	  <D>,	<mu0>,	<Omega>,	<Rgas>,	<vartheta>,
**
**phi0,             permitt,   DiffP, Ka,      cbarP0,      zP_mob,   DiffN,  cRmaxN
<phi_init0>,	  8.85e-12,   <D1>,  <Ka_COOH>,  <c1_init0_A>,   <z1_val>,     <D2>,  <key0>,
**
**     cbarN0,      zN_mob,           cRf,   zf 	       cOH0       zOH_mob    DiffOH, <omgOH0>
      <c2_init0_A>,   <z2_val>,     <c_bound_A>, <z_bound_A>,     <c3_init0>, <z3_val>, <D3> ,  <omg30>
** 0.25,   -1,     1000,   1,      3,	3
**     nlSdv	ngSdv
		5,	     7
*******************************************************************
********************************************************
*uel property,elset=el_real_polyC
*******************************************************************
**Gshear      Kbulk	     chi	   D	mu0	     Vmol	     Rgas	theta
<Gshear>,	<Kbulk>,	<chi>,	  <D>,	<mu0>,	<Omega>,	<Rgas>,	<vartheta>,
**
**phi0,             permitt,   DiffP, Ka,      cbarP0,      zP_mob,   DiffN,  cRmaxN
<phi_init0>,	  8.85e-12,   <D1>,  <Kb_NH3>,  <c1_init0_B>,   <z1_val>,     <D2>,  <key1>,
**
**     cbarN0,      zN_mob,           cRf,   zf 	       cOH0       zOH_mob    DiffOH, <omgOH0>
      <c2_init0_B>,   <z2_val>,     <c_bound_B>, <z_bound_B>,     <c4_init0>, <z4_val>, <D4> ,  <omg40>
** 0.25,   -1,     1000,   1,      3,	3
**     nlSdv	ngSdv
		5,	     7
********************************************************
** Dummy mesh material properties
**
*Solid section, elset=el_dummy, material=umaterial
***Hourglass Stiffness
**80.e-20
**
*Material, name=umaterial
**
*Elastic
1e-20, 0.3
*User output variables
7
**
** *user material, constant=0
** **
** *Depvar
** 19
** 1, cbar
** 2, T11
** 3, T22
** 4, T12
** 5, T33
** 6, Tes11
** 7, Tes22
** 8, Tes12
** 9, Tes33
** 10, Tme11
** 11, Tme22
** 12, Tme12
** 13, Tme33
** 14, e1
** 15, e2
** 16, j1
** 17, j2
** 18, pbar
** 19, Js
**
**
*Density
1.0
**
*Specific heat
1.0
**
**
************************************************************************
**			BOUNDARY CONDITIONS
************************************************************************
** 2
** right,1,-1.0
** ref_node,1,1.0
**
***EQUATION
**2
**front,3,1.0
**ref_node,3,-1.0
**
***EQUATION
**2
**back,3,1.0
**ref_node2,3,-1.0
************************************************************************
**			INITIAL CONDITIONS
************************************************************************
**
*Initial conditions, type=temperature
nall, 0., <omg_init0_A>, <omg1_init0_A>, <omg2_init0_A>, 0., 0.
**nall_lower,  0., 0., <omg_init0_B>, <omg1_init0_B>, <omg2_init0_B>
**, <omg1_init>, <omg2_init>
************************************************************************
**			AMPLITUDE DEFINITION
************************************************************************
**
*Amplitude, name=amp_1_A
0.,<omg_init0_A>, <tramp>, <omg_init_A>, <tload>, <omg_init_A>
*Amplitude, name=amp_1b_A
0.,<omg1_init0_A>, <tramp>, <omg1_init_A>, <tload>, <omg1_init_A>
*Amplitude, name=amp_1c_A
0.,<omg2_init0_A>, <tramp>, <omg2_init_A>, <tload>, <omg2_init_A>
*Amplitude, name=amp_1d_A
0.,<omg3_init0>, <tramp>, <omg3_init_A>, <tload>, <omg3_init_A>
*Amplitude, name=amp_1_B
0.,<omg_init0_B>, <tramp>, <omg_init_B>
*Amplitude, name=amp_1b_B
0.,<omg1_init0_B>, <tramp>, <omg1_init_B>
*Amplitude, name=amp_1c_B
0.,<omg2_init0_B>, <tramp>, <omg2_init_B>
*Amplitude, name=amp_1d_B
0.,<omg4_init0>, <tramp>, <omg4_init_B>, <tload>, <omg4_init_B>
*******
*Amplitude, name=amp_cycle_A
**, definition= Smooth Step
0.,<omg_init_A>,<tramp>,<omg_sol1>,<tload>,<omg_sol1>
*Amplitude, name=amp_cycle1_A
**, definition= Smooth Step
0.,<omg1_init_A>,<tramp>,<omg1_sol1>,<tload>,<omg1_sol1>
*Amplitude, name=amp_cycle2_A
**, definition= Smooth Step
0.,<omg2_init_A>,<tramp>,<omg2_sol1>,<tload>,<omg2_sol1>
*Amplitude, name=amp_cycle3_A
**, definition= Smooth Step
0.,<omg3_init_A>,<tramp>,<omg3_sol1>,<tload>,<omg3_sol1>
**
*Amplitude, name=amp_cycle_B
**, definition= Smooth Step
0.,<omg_init_B>,<tramp>,<omg_sol1>,<tload>,<omg_sol1>
*Amplitude, name=amp_cycle1_B
**, definition= Smooth Step
0.,<omg1_init_B>,<tramp>,<omg1_sol1>,<tload>,<omg1_sol1>
*Amplitude, name=amp_cycle2_B
**, definition= Smooth Step
0.,<omg2_init_B>,<tramp>,<omg2_sol1>,<tload>,<omg2_sol1>
*Amplitude, name=amp_cycle3_B
**, definition= Smooth Step
0.,<omg4_init_B>,<tramp>,<omg4_sol1>,<tload>,<omg4_sol1>
****
*Amplitude, name=amp_Sol, definition= Smooth Step
0.,<omg_sol1>,<tload1>,<omg_sol2>
*Amplitude, name=amp_pos, definition= Smooth Step
0.,<omg1_sol1>,<tload1>,<omg1_sol2>
*Amplitude, name=amp_neg, definition= Smooth Step
0.,<omg2_sol1>,<tload1>,<omg2_sol2>
*Amplitude, name=amp_pH1, definition= Smooth Step
0.,<omg3_sol1>,<tload1>,<omg3_sol2>,<tload2>,<omg3_sol2>,<tload3>,<omg3_sol3>
<tload4>,<omg3_sol3>
*Amplitude, name=amp_pH2
**, definition= Smooth Step
0.,<omg3_sol2>,<tload1b>,<omg3_sol3>,<tload2b>,<omg3_sol3>
*Amplitude, name=amp_pH3, definition= Smooth Step
0.,<omg3_sol3>,<tload0b>,<omg3_sol2>,<tload1b>,<omg3_sol4>,<tload2b>,<omg3_sol4>
**,<tload3>,<omg3_sol1>
**<tload4>,<omg3_sol1>
*Amplitude, name=amp_pH1_, definition= Smooth Step
0.,<omg4_sol1>,<tload1>,<omg4_sol2>,<tload2>,<omg4_sol2>,<tload3>,<omg4_sol3>
<tload4>,<omg4_sol3>
*Amplitude, name=amp_pH2_
**, definition= Smooth Step
0.,<omg4_sol2>,<tload1b>,<omg4_sol3>,<tload2b>,<omg4_sol3>,<tload3>,<omg4_sol1>
<tload4>,<omg4_sol1>
*Amplitude, name=amp_pH3_, definition= Smooth Step
0.,<omg4_sol3>,<tload0b>,<omg4_sol2>,<tload1b>,<omg4_sol4>,<tload2b>,<omg4_sol4>
************************************************************************
**			STEP DEFINITION
************************************************************************
************************************************************************
*Step, Name=swell, nlgeom=yes, inc=50000
*Coupled temperature-displacement, deltmx=2000, stabilize, factor=0.001
<ti>,<tload>,<tmin>,<tlim>
*CONTROLS, PARAMETERS=TIME INCREMENTATION
,,,,,,,30,,,,,,
***Solution technique, type=separated
***CONTROLS, PARAMETERS=LINE SEARCH
**10,1.0,0.0001,0.25,0.10
**
** 	DISPLACEMENT B.C.
*Boundary,op=mod
left,1,1,0.
left_back_bottom,2,3,0.
left_bottom,2,2,0.
**left_front_bottom,2,2,0.
back,3,3,0.
**front,3,3
**left_back_bottom,2,3
**left_front_bottom,2,2
**
**nall,12,12,0.
**nall,4,4,0.
*Boundary,amplitude=amp_1_A
nall,12,12,1.
*Boundary,amplitude=amp_1b_A
nall,13,13,1.
*Boundary,amplitude=amp_1c_A
nall,14,14,1.
*Boundary,amplitude=amp_1d_A
nall,15,15,1.
*Boundary,amplitude=amp_1d_B
nall,16,16,1.
**
**
**	OUTPUTS
**
*Output, field
**, number interval=40
*node output, nset=nall
u,nt
*Element output, elset=el_dummy
le,UVARM
**
*Output, history
*Element output, elset=el_dummy
UVARM1
***Node output, nset=ref_node
**rf2
*End Step
************************************************************************
*Step, Name=equilibriate1, nlgeom=yes, inc=50000
*Coupled temperature-displacement, deltmx=2000
**, stabilize
<ti>,<tload>,<tmin>,<tlim>
*CONTROLS, PARAMETERS=TIME INCREMENTATION
,,,,,,,30,,,,,,
***Solution technique, type=separated
*CONTROLS, PARAMETERS=LINE SEARCH
10,1.0,0.0001,0.25,0.10
**
** 	DISPLACEMENT B.C.
*Boundary,op=new
left,1,1,0.
left_back_bottom,2,2,0.
left_bottom,2,2,0.
**left_back_bottom,2,3,0.
**left_front_bottom,2,2,0.
back,3,3,0.
**left_back_bottom,2,3
**left_front_bottom,2,2
**
**nall,5,5,0.
**nall_upper,12,12,0.
**nall_lower,12,12,0.
**nall,4,4,0.
**nall,12,12,<omg1_init>
**nall,13,13,<omg2_init>
**nall,11,11,<omg_init>
**
*Boundary,amplitude=amp_cycle_A,op=new
nall,12,12,1.
outer,12,12,1.
*Boundary,amplitude=amp_cycle1_A,op=new
nall,13,13,1.
outer,13,13,1.
*Boundary,amplitude=amp_cycle2_A,op=new
nall,14,14,1.
outer,14,14,1.
*Boundary,amplitude=amp_cycle3_A,op=new
nall,15,15,1.
outer,15,15,1.
*Boundary,amplitude=amp_cycle3_B,op=new
nall,16,16,1.
outer,16,16,1.
**
**	OUTPUTS
**
*Output, field
**, number interval=40
*node output, nset=nall
u,nt
*Element output, elset=el_dummy
le,UVARM
**
*Output, history
***Node output, nset=ref_node
**rf2
*End Step
************************************************************************
************************************************************************
*Step, Name=equilibrate2, nlgeom=yes, inc=50000
*Coupled temperature-displacement, deltmx=2000
**, stabilize, factor=0.005
<ti>,<tload2>,<tmin>,<tlim2>
*CONTROLS, PARAMETERS=TIME INCREMENTATION
,,,,,,,30,,,,,,
***Solution technique, type=separated
*CONTROLS, PARAMETERS=LINE SEARCH
10,1.0,0.0001,0.25,0.10
**
** 	DISPLACEMENT B.C.
*Boundary,op=new,type=velocity
left,1,1,0.
left_bottom,2,2,0.
**left_back_bottom,2,3,0.
**left_front_bottom,2,2,0.
back,3,3,0.
**back,3,3
**bottom,2,2
**left_back_bottom,2,3
**left_front_bottom,2,2
**
*Boundary, amplitude=amp_sol, op=new
outer,12,12,1.
*Boundary, amplitude = amp_pos, op=new
outer,13,13,1.
*Boundary, amplitude = amp_neg, op=new
outer,14,14,1.
**
*Boundary,amplitude=amp_pH1,op=new
outer,15,15,1.
*Boundary,amplitude=amp_pH1_,op=new
outer,16,16,1.
**
**	OUTPUTS
**
*Output, field
**, number interval=40
*node output, nset=nall
u,nt
*Element output, elset=el_dummy
le,UVARM
**
*Output, history
***Node output, nset=ref_node
**rf2
*End Step
************************************************************************
*Step, Name=increase, nlgeom=yes, inc=50000
*Coupled temperature-displacement, deltmx=2000
**, stabilize, factor= 0.005
<ti>,<tload2b>,<tmin>,<tlim2>
*CONTROLS, PARAMETERS=TIME INCREMENTATION
,,,,,,,30,,,,,,
***Solution technique, type=separated
*CONTROLS, PARAMETERS=LINE SEARCH
10,1.0,0.0001,0.25,0.10
**
** 	DISPLACEMENT B.C.
*Boundary,op=new,type=velocity
left,1,1,0.
left_bottom,2,2,0.
**left_back_bottom,2,3,0.
**left_front_bottom,2,2,0.
back,3,3,0.
**back,3,3
**bottom,2,2
**left_back_bottom,2,3
**left_front_bottom,2,2
**
*Boundary, op=new
outer,12,12,<omg_sol2>
outer,13,13,<omg1_sol2>
outer,14,14,<omg2_sol2>
**
*Boundary,amplitude=amp_pH2,op=new
outer,15,15,1.
*Boundary, amplitude=amp_pH2_,op=new
outer,16,16,1.
**
**	OUTPUTS
**
*Output, field, number interval=240
*node output, nset=nall
u,nt
*Element output, elset=el_dummy
le,UVARM
**
*Output, history
***Node output, nset=ref_node
**rf2
*End Step
************************************************************************
*Step, Name=decrease, nlgeom=yes, inc=50000
*Coupled temperature-displacement, deltmx=2000
**, stabilize
<ti>,<tload2b>,<tmin>,<tlim2>
*CONTROLS, PARAMETERS=TIME INCREMENTATION
,,,,,,,30,,,,,,
***Solution technique, type=separated
*CONTROLS, PARAMETERS=LINE SEARCH
10,1.0,0.0001,0.25,0.10
**
** 	DISPLACEMENT B.C.
*Boundary,op=new,type=velocity
left,1,1,0.
left_bottom,2,2,0.
**left_back_bottom,2,3,0.
**left_front_bottom,2,2,0.
back,3,3,0.
**back,3,3
**bottom,2,2
**left_back_bottom,2,3
**left_front_bottom,2,2
**
*Boundary, op=new
outer,12,12,<omg_sol2>
outer,13,13,<omg1_sol2>
outer,14,14,<omg2_sol2>
**
*Boundary,amplitude=amp_pH3,op=new
outer,15,15,1.
*Boundary, amplitude=amp_pH3_,op=new
outer,16,16,1.
**
**	OUTPUTS
**
*Output, field, number interval=240
*node output, nset=nall
u,nt
*Element output, elset=el_dummy
le,UVARM
**
*Output, history
***Node output, nset=ref_node
**rf2
*End Step
************************************************************************