******************************************************
*Heading
Bi-material beam study
**
**	UNITS:	SI
************************************************************************
**			PARAMETERS
************************************************************************
*Parameter
**
** total simulation time (seconds)
tramp = 3600*2.
tload = 3600*5.
tlim = tramp/40.
tlim2 = tlim/2
**
deltload = 400.
deltload2 = 15.
tload1b = deltload2 
tload2b = 60.
tday = 24*3600.
tload1 = deltload
tload2 = 3000.
tload3 = tload2 + deltload
tload4 = 2*tload2
tload5 = 2*tday + 2*deltload
tload6 = 3*tday
tlim2 = tload2/30
**
** Total strain
eps = 0.2
** 
** Strain rate
epsdot = eps/tload
** 
** Velocity
vel2 = epsdot*1e-3
**
** inital time step
ti = tload/1e7
** 
** max time step
tmax = tload/500
**
** min time step
tmin = 1e-15
**
*******************************
Eyoung = 2.9*75.e3
anu = 0.45
Gshear = 100.e3
**72.5e3/2.
**75.e3
Kbulk = Gshear*10
**72.5e4
**750.e3
*******************************
mu0 = 0
**
c1_st = 10000.
c2_st = 10000.
**
c1_init0_A = 1500.
**1500.
c2_init0_A = 5.
c1_init0_B = 5.
c2_init0_B = 1500.
c1_init0_C = 5.
c2_init0_C = 5.
c3_init0 = 0.5625*1.e-5*1.e3
c4_init0 = 0.1778*1.e-7*1.e3
**1480.
**
Ka_COOH = 0.3162*1.e-4*1.e3
Ka_none = 1.e-15*1.e3
Kb_NH3  = 1.e-6*1.e3
phi_init0 = 0.999
**
**cbar_bound = 0.15
c_bound_A = c1_init0_A - c2_init0_A + c3_init0
c_bound_B = c2_init0_B - c1_init0_B + c4_init0
c_bound_C = 0.
**+ c3_init0
**1600.
**
Rgas = 8.314
vartheta = 298
**omg_init = mu0 + Rgas*vartheta*log(cbar0)
**
*********************
z_val = 0.
z1_val = 1.
z2_val = -1.
z3_val = 1.
z4_val = -1.
z_bound_A = -1.
z_bound_B = 1.
z_bound_C = -1.
Farad = 96485.
********************
**
Omega = 1.8e-5
**21.e-5
D  = 1.7e-6
**2.e-5
D1 = 4.e-8
**1.e-8
**1.e-6
D2 = 4.e-8
**1.e-8
**1.e-6
D3 = 7.e-7
D4 = 7.e-7
**
key0 = 0.
key1 = 1.
**
chi = 0.4
omg_init0_A  = mu0 + Rgas*vartheta*(log(1-phi_init0)+ phi_init0*(1+chi*phi_init0)-Omega*(c1_init0_A+c2_init0_A+c3_init0)*(phi_init0)/(1-phi_init0))
**
omg1_init0_A = mu0 + Rgas*vartheta*log(Omega*c1_init0_A*(phi_init0)/(1-phi_init0))
omg2_init0_A = mu0 + Rgas*vartheta*log(Omega*c2_init0_A*(phi_init0)/(1-phi_init0))
**
omg_init0_B  = mu0 + Rgas*vartheta*(log(1-phi_init0)+ phi_init0*(1+chi*phi_init0)-Omega*(c1_init0_B+c2_init0_B+c4_init0)*(phi_init0)/(1-phi_init0))
**
omg1_init0_B = mu0 + Rgas*vartheta*log(Omega*c1_init0_B*(phi_init0)/(1-phi_init0))
omg2_init0_B = mu0 + Rgas*vartheta*log(Omega*c2_init0_B*(phi_init0)/(1-phi_init0))
**
omg3_init0 = 0.
omg30 = -Rgas*vartheta*log(Omega*c3_init0*(phi_init0)/(1-phi_init0))
** 
**
omg4_init0 = 0.
omg40 = -Rgas*vartheta*log(Omega*c4_init0*(phi_init0)/(1-phi_init0))
** *(phi_init0)/(1-phi_init0)
**
phi_init = 1/3.2
**1/3.215
c1_init_A = c1_init0_A
**
c2_init_A = c2_init0_A
**
c1_init_B = c1_init0_B
**
c2_init_B = c2_init0_B
**
omg_init_A  = mu0 + Rgas*vartheta*(log(1-phi_init)+ phi_init*(1+chi*phi_init)-Omega*(c1_init_A+c2_init_A+c3_init0)*(phi_init)/(1-phi_init))
**
omg1_init_A = mu0 + Rgas*vartheta*log(Omega*c1_init_A*(phi_init)/(1-phi_init))
omg2_init_A = mu0 + Rgas*vartheta*log(Omega*c2_init_A*(phi_init)/(1-phi_init))
omg3_init_A = omg30 + Rgas*vartheta*log(Omega*c3_init0)
** *phi_init/(1-phi_init)
**
omg_init_B  = mu0 + Rgas*vartheta*(log(1-phi_init)+ phi_init*(1+chi*phi_init)-Omega*(c1_init_B+c2_init_B+c4_init0)*(phi_init)/(1-phi_init))
**
omg1_init_B = mu0 + Rgas*vartheta*log(Omega*c1_init_B*(phi_init)/(1-phi_init))
omg2_init_B = mu0 + Rgas*vartheta*log(Omega*c2_init_B*(phi_init)/(1-phi_init))
omg4_init_B = omg40 + Rgas*vartheta*log(Omega*c4_init0)
**
c1_sol1 = 500.
c3_sol1 = 0.5625*1.e-6*1.e3
c4_sol1 = 0.1778*1.e-7*1.e3
c2_sol1 = 500.
**
**omg_sol1 = omg_init
**omg1_sol1 = omg1_init
**omg2_sol1 = omg2_init
**
**omg_init=omg_init0
**omg1_init=omg1_init0
**omg2_init=omg2_init0
**
omg_sol1 = mu0 - Rgas*vartheta*Omega*(c1_sol1+c2_sol1+c3_sol1) 
**omg_sol1 = 0.9*omg_init
omg1_sol1 = mu0 +  Rgas*vartheta*log(Omega*c1_sol1)
omg2_sol1 = mu0 +  Rgas*vartheta*log(Omega*c2_sol1)
********************
omg3_sol1 = omg30 + Rgas*vartheta*log(Omega*c3_sol1)
omg4_sol1 = omg40 + Rgas*vartheta*log(Omega*c4_sol1)
**
c3_sol2 = 0.5625*1.e-6*1.e3
omg3_sol2 = omg30 + Rgas*vartheta*log(Omega*c3_sol2)
c4_sol2 = 0.1778*1.e-7*1.e3
omg4_sol2 = omg40 + Rgas*vartheta*log(Omega*c4_sol2)
**
c3_sol3 = 0.5625*1.e-8*1.e3
omg3_sol3 = omg30 + Rgas*vartheta*log(Omega*c3_sol3)
c4_sol3 = 0.1778*1.e-5*1.e3
omg4_sol3 = omg40 + Rgas*vartheta*log(Omega*c4_sol3)
**
c3_sol4 = 0.5625*1.e-4*1.e3
omg3_sol4 = omg30 + Rgas*vartheta*log(Omega*c3_sol4)
c4_sol4 = 0.1778*1.e-9*1.e3
omg4_sol4 = omg40 + Rgas*vartheta*log(Omega*c4_sol4)
********************
c1_sol2 = 100.
c2_sol2 = 100.
**
omg_sol2  = mu0 - Rgas*vartheta*Omega*(c1_sol2+c2_sol2) 
omg1_sol2 = mu0 +  Rgas*vartheta*log(Omega*c1_sol2)
omg2_sol2 = mu0 +  Rgas*vartheta*log(Omega*c2_sol2)
***************
omg_diff1 = omg_sol1-omg_sol2
omg1_diff1 = omg1_sol1-omg1_sol2
omg2_diff1 = omg2_sol1-omg2_sol2
**
omg_diff2 = omg_sol2-omg_sol1
omg1_diff2 = omg1_sol2-omg1_sol1
omg2_diff2 = omg2_sol2-omg2_sol1
**
** Integer parameters
nlSdv = 3
ngSdv = 3
nInt = 4
nvars = nlSdv*nInt
**
** ~~~~~~~~~~~~~~~~~~~~~~~~~~~~~~~~~~~~~~~~~~~~~~~~~~~~~~~~~~~~~~~~~~~~~
** 			INPUTS
** ~~~~~~~~~~~~~~~~~~~~~~~~~~~~~~~~~~~~~~~~~~~~~~~~~~~~~~~~~~~~~~~~~~~~~
**
** major dimensions of plate (m)
xlength = 1.69e-3
**
ylength = 6.77e-3/2
**
** number of elements along each direction
xElem = 10
yElem = 10
**
**
** ~~~~~~~~~~~~~~~~~~~~~~~~~~~~~~~~~~~~~~~~~~~~~~~~~~~~~~~~~~~~~~~~~~~~~
** 			GEOMETRY GENERATION
** ~~~~~~~~~~~~~~~~~~~~~~~~~~~~~~~~~~~~~~~~~~~~~~~~~~~~~~~~~~~~~~~~~~~~~
**
**
** Nodes at the vertices:
*Node, nset = nall
      1,0.00249999994,5.99999985e-05,0.000149999996
2,0.00249999994,2.99999992e-05,0.000149999996
3,0.00249999994,2.99999992e-05,0
4,0.00249999994,5.99999985e-05,0
5,0,2.99999992e-05,0.000149999996
6,0,2.99999992e-05,0
7,0,5.99999985e-05,0
8,0,5.99999985e-05,0.000149999996
9,0.00499999989,5.99999985e-05,0.000149999996
10,0.00499999989,2.99999992e-05,0.000149999996
11,0.00499999989,2.99999992e-05,0
12,0.00499999989,5.99999985e-05,0
13,0.00249999994,0,0.000149999996
14,0,0,0.000149999996
15,0,0,0
16,0.00249999994,0,0
17,0.00499999989,0,0.000149999996
18,0.00499999989,0,0
19,0.00249999994,4.50000007e-05,0.000149999996
20,0.00249999994,2.99999992e-05,0.000100000001
** ... 880 like lines cut
**
**
**
** Declare user element
*User Element,Nodes=8,Type=U1,Iproperties=2,Properties=24,Coordinates=3,Variables=40,Unsymm
1,2,3,11,12,13,14,15,16
**
*element, type=U1, elset=el_real_polyC
 1,  72, 389, 733, 305,   1,  19, 301,  24
  2, 389, 114, 347, 733,  19,   2,  20, 301
  3, 305, 733, 734, 306,  24, 301, 302,  23
  4, 733, 347, 348, 734, 301,  20,  21, 302
  5, 306, 734, 410,  31,  23, 302,  22,   4
  6, 734, 348,  73, 410, 302,  21,   3,  22
  7,  71, 390, 735, 307,  72, 389, 733, 305
  8, 390, 113, 349, 735, 389, 114, 347, 733
  9, 307, 735, 736, 308, 305, 733, 734, 306
 10, 735, 349, 350, 736, 733, 347, 348, 734
 11, 308, 736, 411,  32, 306, 734, 410,  31
 12, 736, 350,  74, 411, 734, 348,  73, 410
 13,  70, 391, 737, 309,  71, 390, 735, 307
 14, 391, 112, 351, 737, 390, 113, 349, 735
 15, 309, 737, 738, 310, 307, 735, 736, 308
 16, 737, 351, 352, 738, 735, 349, 350, 736
 17, 310, 738, 412,  33, 308, 736, 411,  32
 18, 738, 352,  75, 412, 736, 350,  74, 411
 19,  69, 392, 739, 311,  70, 391, 737, 309
 20, 392, 111, 353, 739, 391, 112, 351, 737
** ... 244 like lines cut
**
** call to *elgen which meshes the plate geometry
** "Master Element" for *Elgen
*element, type=C3D8RH, elset=el_dummy_polyC
10001,72,389,733,305,1,19,301,24
10002,389,114,347,733,19,2,20,301
10003,305,733,734,306,24,301,302,23
10004,733,347,348,734,301,20,21,302
10005,306,734,410,31,23,302,22,4
10006,734,348,73,410,302,21,3,22
10007,71,390,735,307,72,389,733,305
10008,390,113,349,735,389,114,347,733
10009,307,735,736,308,305,733,734,306
10010,735,349,350,736,733,347,348,734
10011,308,736,411,32,306,734,410,31
10012,736,350,74,411,734,348,73,410
10013,70,391,737,309,71,390,735,307
10014,391,112,351,737,390,113,349,735
10015,309,737,738,310,307,735,736,308
10016,737,351,352,738,735,349,350,736
10017,310,738,412,33,308,736,411,32
10018,738,352,75,412,736,350,74,411
10019,69,392,739,311,70,391,737,309
10020,392,111,353,739,391,112,351,737
** ... 244 like lines cut
**
*element, type=U1, elset=el_real_polyA
 133,   1,  19, 301,  24, 142, 517, 775, 433
134,  19,   2,  20, 301, 517, 184, 475, 775
135,  24, 301, 302,  23, 433, 775, 776, 434
136, 301,  20,  21, 302, 775, 475, 476, 776
137,  23, 302,  22,   4, 434, 776, 538, 141
138, 302,  21,   3,  22, 776, 476, 183, 538
139, 142, 517, 775, 433, 143, 518, 777, 435
140, 517, 184, 475, 775, 518, 185, 477, 777
141, 433, 775, 776, 434, 435, 777, 778, 436
142, 775, 475, 476, 776, 777, 477, 478, 778
143, 434, 776, 538, 141, 436, 778, 539, 140
144, 776, 476, 183, 538, 778, 478, 182, 539
145, 143, 518, 777, 435, 144, 519, 779, 437
146, 518, 185, 477, 777, 519, 186, 479, 779
147, 435, 777, 778, 436, 437, 779, 780, 438
148, 777, 477, 478, 778, 779, 479, 480, 780
149, 436, 778, 539, 140, 438, 780, 540, 139
150, 778, 478, 182, 539, 780, 480, 181, 540
151, 144, 519, 779, 437, 145, 520, 781, 439
152, 519, 186, 479, 779, 520, 187, 481, 781
** ... 244 like lines cut
**
** call to *elgen which meshes the plate geometry
** "Master Element" for *Elgen
*element, type=C3D8RH, elset=el_dummy_polyA
10133,1,19,301,24,142,517,775,433
10134,19,2,20,301,517,184,475,775
10135,24,301,302,23,433,775,776,434
10136,301,20,21,302,775,475,476,776
10137,23,302,22,4,434,776,538,141
10138,302,21,3,22,776,476,183,538
10139,142,517,775,433,143,518,777,435
10140,517,184,475,775,518,185,477,777
10141,433,775,776,434,435,777,778,436
10142,775,475,476,776,777,477,478,778
10143,434,776,538,141,436,778,539,140
10144,776,476,183,538,778,478,182,539
10145,143,518,777,435,144,519,779,437
10146,518,185,477,777,519,186,479,779
10147,435,777,778,436,437,779,780,438
10148,777,477,478,778,779,479,480,780
10149,436,778,539,140,438,780,540,139
10150,778,478,182,539,780,480,181,540
10151,144,519,779,437,145,520,781,439
10152,519,186,479,779,520,187,481,781
** ... 244 like lines cut
**
*****************************
**
*Nset, nset=bottom
  13,  14,  15,  16,  17,  18, 207, 208, 209, 210, 211, 212, 213, 214, 215, 216
 217, 218, 219, 220, 221, 222, 223, 224, 225, 226, 227, 230, 231, 232, 233, 234
 235, 236, 237, 238, 239, 240, 241, 242, 243, 244, 245, 246, 247, 248, 249, 250
 251, 252, 253, 254, 256, 257, 259, 260, 261, 262, 263, 264, 265, 266, 267, 268
 269, 270, 271, 272, 273, 274, 275, 276, 277, 278, 279, 280, 281, 282, 283, 284
 285, 286, 287, 288, 289, 290, 291, 292, 293, 294, 295, 296, 297, 298, 299, 300
 601, 602, 603, 604, 605, 606, 607, 608, 609, 610, 611, 612, 613, 614, 615, 616
 617, 618, 619, 620, 621, 622, 623, 624, 625, 626, 627, 628, 629, 630, 631, 632
 633, 634, 635, 636, 637, 638, 639, 640, 641, 642, 691, 692, 693, 694, 695, 696
 697, 698, 699, 700, 701, 702, 703, 704, 705, 706, 707, 708, 709, 710, 711, 712
 713, 714, 715, 716, 717, 718, 719, 720, 721, 722, 723, 724, 725, 726, 727, 728
 729, 730, 731, 732
*Elset, elset=bottom
 265, 267, 269, 271, 273, 275, 277, 279, 281, 283, 285, 287, 289, 291, 293, 295
 297, 299, 301, 303, 305, 307, 309, 311, 313, 315, 317, 319, 321, 323, 325, 327
 329, 331, 333, 335, 337, 339, 341, 343, 345, 347, 349, 351, 353, 355, 357, 359
 361, 363, 365, 367, 369, 371, 373, 375, 377, 379, 381, 383, 385, 387, 389, 391
 393, 395, 400, 401, 402, 406, 407, 408, 412, 413, 414, 418, 419, 420, 424, 425
 426, 430, 431, 432, 436, 437, 438, 442, 443, 444, 448, 449, 450, 454, 455, 456
 460, 461, 462, 466, 467, 468, 472, 473, 474, 478, 479, 480, 484, 485, 486, 490
 491, 492, 496, 497, 498, 502, 503, 504, 508, 509, 510, 514, 515, 516, 520, 521
 522, 526, 527, 528
*Nset, nset=top
   1,   4,   7,   8,   9,  12,  23,  24,  29,  30,  31,  32,  33,  34,  35,  36
  37,  38,  39,  40,  41,  42,  43,  44,  45,  46,  47,  48,  49,  50,  51,  52
  53,  54,  55,  56,  57,  58,  59,  60,  61,  62,  63,  64,  65,  66,  67,  68
  69,  70,  71,  72, 119, 120, 121, 122, 123, 124, 125, 126, 127, 128, 129, 130
 131, 132, 133, 134, 135, 136, 137, 138, 139, 140, 141, 142, 143, 144, 145, 146
 147, 148, 149, 150, 151, 152, 153, 154, 155, 156, 157, 158, 159, 160, 161, 162
 305, 306, 307, 308, 309, 310, 311, 312, 313, 314, 315, 316, 317, 318, 319, 320
 321, 322, 323, 324, 325, 326, 327, 328, 329, 330, 331, 332, 333, 334, 335, 336
 337, 338, 339, 340, 341, 342, 343, 344, 345, 346, 433, 434, 435, 436, 437, 438
 439, 440, 441, 442, 443, 444, 445, 446, 447, 448, 449, 450, 451, 452, 453, 454
 455, 456, 457, 458, 459, 460, 461, 462, 463, 464, 465, 466, 467, 468, 469, 470
 471, 472, 473, 474
*Elset, elset=top, generate
   1,  263,    2
*Nset, nset=left
   5,   6,   7,   8,  14,  15,  25,  26,  27,  28,  29,  30, 206, 229, 251, 252
 303, 304, 645, 646
*Elset, elset=left
 127, 128, 129, 130, 131, 132, 307, 308, 351, 352, 395, 396
*Nset, nset=left_back_bottom
 15,
*Nset, nset=right
   9,  10,  11,  12,  17,  18, 115, 116, 117, 118, 119, 120, 255, 256, 257, 258
 431, 432, 647, 648
*Elset, elset=right
 259, 260, 261, 262, 263, 264, 397, 398, 399, 400, 401, 402
*Nset, nset=front
   1,   2,   5,   8,   9,  10,  13,  14,  17,  19,  25,  52,  53,  54,  55,  56
  57,  58,  59,  60,  61,  62,  63,  64,  65,  66,  67,  68,  69,  70,  71,  72
  94,  95,  96,  97,  98,  99, 100, 101, 102, 103, 104, 105, 106, 107, 108, 109
 110, 111, 112, 113, 114, 115, 142, 143, 144, 145, 146, 147, 148, 149, 150, 151
 152, 153, 154, 155, 156, 157, 158, 159, 160, 161, 162, 184, 185, 186, 187, 188
 189, 190, 191, 192, 193, 194, 195, 196, 197, 198, 199, 200, 201, 202, 203, 204
 205, 206, 207, 208, 209, 210, 211, 212, 213, 214, 215, 216, 217, 218, 219, 220
 221, 222, 223, 224, 225, 226, 227, 255, 280, 281, 282, 283, 284, 285, 286, 287
 288, 289, 290, 291, 292, 293, 294, 295, 296, 297, 298, 299, 300, 389, 390, 391
 392, 393, 394, 395, 396, 397, 398, 399, 400, 401, 402, 403, 404, 405, 406, 407
 408, 409, 517, 518, 519, 520, 521, 522, 523, 524, 525, 526, 527, 528, 529, 530
 531, 532, 533, 534, 535, 536, 537, 559, 560, 561, 562, 563, 564, 565, 566, 567
 568, 569, 570, 571, 572, 573, 574, 575, 576, 577, 578, 579, 670, 671, 672, 673
 674, 675, 676, 677, 678, 679, 680, 681, 682, 683, 684, 685, 686, 687, 688, 689
 690,
*Elset, elset=front
   1,   2,   7,   8,  13,  14,  19,  20,  25,  26,  31,  32,  37,  38,  43,  44
  49,  50,  55,  56,  61,  62,  67,  68,  73,  74,  79,  80,  85,  86,  91,  92
  97,  98, 103, 104, 109, 110, 115, 116, 121, 122, 127, 128, 133, 134, 139, 140
 145, 146, 151, 152, 157, 158, 163, 164, 169, 170, 175, 176, 181, 182, 187, 188
 193, 194, 199, 200, 205, 206, 211, 212, 217, 218, 223, 224, 229, 230, 235, 236
 241, 242, 247, 248, 253, 254, 259, 260, 265, 266, 267, 268, 269, 270, 271, 272
 273, 274, 275, 276, 277, 278, 279, 280, 281, 282, 283, 284, 285, 286, 287, 288
 289, 290, 291, 292, 293, 294, 295, 296, 297, 298, 299, 300, 301, 302, 303, 304
 305, 306, 307, 308, 399, 402, 405, 408, 411, 414, 417, 420, 423, 426, 429, 432
 435, 438, 441, 444, 447, 450, 453, 456, 459, 462, 465, 468, 471, 474, 477, 480
 483, 486, 489, 492, 495, 498, 501, 504, 507, 510, 513, 516, 519, 522, 525, 528
*Nset, nset=back
   3,   4,   6,   7,  11,  12,  15,  16,  18,  22,  28,  31,  32,  33,  34,  35
  36,  37,  38,  39,  40,  41,  42,  43,  44,  45,  46,  47,  48,  49,  50,  51
  73,  74,  75,  76,  77,  78,  79,  80,  81,  82,  83,  84,  85,  86,  87,  88
  89,  90,  91,  92,  93, 118, 121, 122, 123, 124, 125, 126, 127, 128, 129, 130
 131, 132, 133, 134, 135, 136, 137, 138, 139, 140, 141, 163, 164, 165, 166, 167
 168, 169, 170, 171, 172, 173, 174, 175, 176, 177, 178, 179, 180, 181, 182, 183
 228, 229, 230, 231, 232, 233, 234, 235, 236, 237, 238, 239, 240, 241, 242, 243
 244, 245, 246, 247, 248, 249, 250, 258, 259, 260, 261, 262, 263, 264, 265, 266
 267, 268, 269, 270, 271, 272, 273, 274, 275, 276, 277, 278, 279, 410, 411, 412
 413, 414, 415, 416, 417, 418, 419, 420, 421, 422, 423, 424, 425, 426, 427, 428
 429, 430, 538, 539, 540, 541, 542, 543, 544, 545, 546, 547, 548, 549, 550, 551
 552, 553, 554, 555, 556, 557, 558, 580, 581, 582, 583, 584, 585, 586, 587, 588
 589, 590, 591, 592, 593, 594, 595, 596, 597, 598, 599, 600, 649, 650, 651, 652
 653, 654, 655, 656, 657, 658, 659, 660, 661, 662, 663, 664, 665, 666, 667, 668
 669,
*Elset, elset=back
   5,   6,  11,  12,  17,  18,  23,  24,  29,  30,  35,  36,  41,  42,  47,  48
  53,  54,  59,  60,  65,  66,  71,  72,  77,  78,  83,  84,  89,  90,  95,  96
 101, 102, 107, 108, 113, 114, 119, 120, 125, 126, 131, 132, 137, 138, 143, 144
 149, 150, 155, 156, 161, 162, 167, 168, 173, 174, 179, 180, 185, 186, 191, 192
 197, 198, 203, 204, 209, 210, 215, 216, 221, 222, 227, 228, 233, 234, 239, 240
 245, 246, 251, 252, 257, 258, 263, 264, 353, 354, 355, 356, 357, 358, 359, 360
 361, 362, 363, 364, 365, 366, 367, 368, 369, 370, 371, 372, 373, 374, 375, 376
 377, 378, 379, 380, 381, 382, 383, 384, 385, 386, 387, 388, 389, 390, 391, 392
 393, 394, 395, 396, 397, 400, 403, 406, 409, 412, 415, 418, 421, 424, 427, 430
 433, 436, 439, 442, 445, 448, 451, 454, 457, 460, 463, 466, 469, 472, 475, 478
 481, 484, 487, 490, 493, 496, 499, 502, 505, 508, 511, 514, 517, 520, 523, 526
*Nset, nset=left_front_bottom
 14,
*Nset, nset=left_front_top
 8,
*Nset, nset=outer
   1,   2,   4,   5,   7,   8,   9,  10,  11,  12,  13,  14,  15,  16,  17,  18
  19,  23,  24,  25,  29,  30,  31,  32,  33,  34,  35,  36,  37,  38,  39,  40
  41,  42,  43,  44,  45,  46,  47,  48,  49,  50,  51,  52,  53,  54,  55,  56
  57,  58,  59,  60,  61,  62,  63,  64,  65,  66,  67,  68,  69,  70,  71,  72
  94,  95,  96,  97,  98,  99, 100, 101, 102, 103, 104, 105, 106, 107, 108, 109
 110, 111, 112, 113, 114, 115, 116, 117, 118, 119, 120, 121, 122, 123, 124, 125
 126, 127, 128, 129, 130, 131, 132, 133, 134, 135, 136, 137, 138, 139, 140, 141
 142, 143, 144, 145, 146, 147, 148, 149, 150, 151, 152, 153, 154, 155, 156, 157
 158, 159, 160, 161, 162, 184, 185, 186, 187, 188, 189, 190, 191, 192, 193, 194
 195, 196, 197, 198, 199, 200, 201, 202, 203, 204, 205, 206, 207, 208, 209, 210
 211, 212, 213, 214, 215, 216, 217, 218, 219, 220, 221, 222, 223, 224, 225, 226
 227, 230, 231, 232, 233, 234, 235, 236, 237, 238, 239, 240, 241, 242, 243, 244
 245, 246, 247, 248, 249, 250, 251, 252, 253, 254, 255, 256, 257, 258, 259, 260
 261, 262, 263, 264, 265, 266, 267, 268, 269, 270, 271, 272, 273, 274, 275, 276
 277, 278, 279, 280, 281, 282, 283, 284, 285, 286, 287, 288, 289, 290, 291, 292
 293, 294, 295, 296, 297, 298, 299, 300, 305, 306, 307, 308, 309, 310, 311, 312
 313, 314, 315, 316, 317, 318, 319, 320, 321, 322, 323, 324, 325, 326, 327, 328
 329, 330, 331, 332, 333, 334, 335, 336, 337, 338, 339, 340, 341, 342, 343, 344
 345, 346, 389, 390, 391, 392, 393, 394, 395, 396, 397, 398, 399, 400, 401, 402
 403, 404, 405, 406, 407, 408, 409, 431, 432, 433, 434, 435, 436, 437, 438, 439
** ... 12 like lines cut
*Elset, elset=outer
   1,   2,   3,   5,   7,   8,   9,  11,  13,  14,  15,  17,  19,  20,  21,  23
  25,  26,  27,  29,  31,  32,  33,  35,  37,  38,  39,  41,  43,  44,  45,  47
  49,  50,  51,  53,  55,  56,  57,  59,  61,  62,  63,  65,  67,  68,  69,  71
  73,  74,  75,  77,  79,  80,  81,  83,  85,  86,  87,  89,  91,  92,  93,  95
  97,  98,  99, 101, 103, 104, 105, 107, 109, 110, 111, 113, 115, 116, 117, 119
 121, 122, 123, 125, 127, 128, 129, 131, 133, 134, 135, 137, 139, 140, 141, 143
 145, 146, 147, 149, 151, 152, 153, 155, 157, 158, 159, 161, 163, 164, 165, 167
 169, 170, 171, 173, 175, 176, 177, 179, 181, 182, 183, 185, 187, 188, 189, 191
 193, 194, 195, 197, 199, 200, 201, 203, 205, 206, 207, 209, 211, 212, 213, 215
 217, 218, 219, 221, 223, 224, 225, 227, 229, 230, 231, 233, 235, 236, 237, 239
 241, 242, 243, 245, 247, 248, 249, 251, 253, 254, 255, 257, 259, 260, 261, 262
 263, 264, 265, 266, 267, 268, 269, 270, 271, 272, 273, 274, 275, 276, 277, 278
 279, 280, 281, 282, 283, 284, 285, 286, 287, 288, 289, 290, 291, 292, 293, 294
 295, 296, 297, 298, 299, 300, 301, 302, 303, 304, 305, 306, 307, 308, 309, 311
 313, 315, 317, 319, 321, 323, 325, 327, 329, 331, 333, 335, 337, 339, 341, 343
 345, 347, 349, 351, 353, 355, 357, 359, 361, 363, 365, 367, 369, 371, 373, 375
 377, 379, 381, 383, 385, 387, 389, 391, 393, 395, 397, 398, 399, 400, 401, 402
 405, 406, 407, 408, 411, 412, 413, 414, 417, 418, 419, 420, 423, 424, 425, 426
 429, 430, 431, 432, 435, 436, 437, 438, 441, 442, 443, 444, 447, 448, 449, 450
 453, 454, 455, 456, 459, 460, 461, 462, 465, 466, 467, 468, 471, 472, 473, 474
 477, 478, 479, 480, 483, 484, 485, 486, 489, 490, 491, 492, 495, 496, 497, 498
 501, 502, 503, 504, 507, 508, 509, 510, 513, 514, 515, 516, 519, 520, 521, 522
 525, 526, 527, 528
*Nset, nset=left_bottom
  14,  15, 251, 252
*Elset, elset=left_bottom, generate
 307,  395,   44
*Elset, elset=blue_gel
 139, 140, 141, 142, 143, 144, 145, 146, 147, 148, 149, 150, 151, 152, 153, 154
 155, 156, 157, 158, 159, 160, 161, 162, 163, 164, 165, 166, 167, 168, 169, 170
 171, 172, 173, 174, 175, 176, 177, 178, 179, 180, 181, 182, 183, 184, 185, 186
 187, 188, 189, 190, 191, 192, 193, 194, 195, 196, 197, 198, 199, 200, 201, 202
 203, 204, 205, 206, 207, 208, 209, 210, 211, 212, 213, 214, 215, 216, 217, 218
 219, 220, 221, 222, 223, 224, 225, 226, 227, 228, 229, 230, 231, 232, 233, 234
 235, 236, 237, 238, 239, 240, 241, 242, 243, 244, 245, 246, 247, 248, 249, 250
 251, 252, 253, 254, 255, 256, 257, 258, 259, 260, 261, 262, 263, 264, 267, 268
 269, 270, 271, 272, 273, 274, 275, 276, 277, 278, 279, 280, 281, 282, 283, 284
 285, 286, 287, 288, 289, 290, 291, 292, 293, 294, 295, 296, 297, 298, 299, 300
 301, 302, 303, 304, 305, 306, 307, 308, 311, 312, 313, 314, 315, 316, 317, 318
 319, 320, 321, 322, 323, 324, 325, 326, 327, 328, 329, 330, 331, 332, 333, 334
 335, 336, 337, 338, 339, 340, 341, 342, 343, 344, 345, 346, 347, 348, 349, 350
 351, 352, 355, 356, 357, 358, 359, 360, 361, 362, 363, 364, 365, 366, 367, 368
 369, 370, 371, 372, 373, 374, 375, 376, 377, 378, 379, 380, 381, 382, 383, 384
 385, 386, 387, 388, 389, 390, 391, 392, 393, 394, 395, 396
*Elset, elset=red_gel
   1,   2,   3,   4,   5,   6,   7,   8,   9,  10,  11,  12,  13,  14,  15,  16
  17,  18,  19,  20,  21,  22,  23,  24,  25,  26,  27,  28,  29,  30,  31,  32
  33,  34,  35,  36,  37,  38,  39,  40,  41,  42,  43,  44,  45,  46,  47,  48
  49,  50,  51,  52,  53,  54,  55,  56,  57,  58,  59,  60,  61,  62,  63,  64
  65,  66,  67,  68,  69,  70,  71,  72,  73,  74,  75,  76,  77,  78,  79,  80
  81,  82,  83,  84,  85,  86,  87,  88,  89,  90,  91,  92,  93,  94,  95,  96
  97,  98,  99, 100, 101, 102, 103, 104, 105, 106, 107, 108, 109, 110, 111, 112
 113, 114, 115, 116, 117, 118, 119, 120, 121, 122, 123, 124, 125, 126, 127, 128
 129, 130, 131, 132, 133, 134, 135, 136, 137, 138, 265, 266, 309, 310, 353, 354
 397, 398, 399, 400, 401, 402, 403, 404, 405, 406, 407, 408, 409, 410, 411, 412
 413, 414, 415, 416, 417, 418, 419, 420, 421, 422, 423, 424, 425, 426, 427, 428
 429, 430, 431, 432, 433, 434, 435, 436, 437, 438, 439, 440, 441, 442, 443, 444
 445, 446, 447, 448, 449, 450, 451, 452, 453, 454, 455, 456, 457, 458, 459, 460
 461, 462, 463, 464, 465, 466, 467, 468, 469, 470, 471, 472, 473, 474, 475, 476
 477, 478, 479, 480, 481, 482, 483, 484, 485, 486, 487, 488, 489, 490, 491, 492
 493, 494, 495, 496, 497, 498, 499, 500, 501, 502, 503, 504, 505, 506, 507, 508
 509, 510, 511, 512, 513, 514, 515, 516, 517, 518, 519, 520, 521, 522, 523, 524
 525, 526, 527, 528
***************************************************
*Elset,elset=el_dummy
el_dummy_polyA,el_dummy_polyC
***************************************************
** Constraint: tied
***Tie, name=tied, adjust=yes, no rotation
**s_Set-1_CNS_, m_Set-1_CNS_
*Nset, Nset=ref_node
9999
*Nset, Nset=ref_node2
9998
**
************************************************************************
**			MATERIAL DEFINITION
************************************************************************
**
** Material properties for the real mesh
**
*uel property,elset=blue_gel
*******************************************************************
**Gshear      Kbulk	     chi	   D	mu0	     Vmol	     Rgas	theta
<Gshear>,	<Kbulk>,	<chi>,	  <D>,	<mu0>,	<Omega>,	<Rgas>,	<vartheta>,
**
**phi0,             permitt,   DiffP, Ka,      cbarP0,      zP_mob,   DiffN,  cRmaxN
<phi_init0>,	  8.85e-12,   <D1>,  <Ka_COOH>,  <c1_init0_A>,   <z1_val>,     <D2>,  <key0>,
**
**     cbarN0,      zN_mob,           cRf,   zf 	       cOH0       zOH_mob    DiffOH, <omgOH0>
      <c2_init0_A>,   <z2_val>,     <c_bound_A>, <z_bound_A>,     <c3_init0>, <z3_val>, <D3> ,  <omg30>
** 0.25,   -1,     1000,   1,      3,	3
**     nlSdv	ngSdv
		5,	     7
*******************************************************************
********************************************************
*uel property,elset=red_gel
*******************************************************************
**Gshear      Kbulk	     chi	   D	mu0	     Vmol	     Rgas	theta
<Gshear>,	<Kbulk>,	<chi>,	  <D>,	<mu0>,	<Omega>,	<Rgas>,	<vartheta>,
**
**phi0,             permitt,   DiffP, Ka,      cbarP0,      zP_mob,   DiffN,  cRmaxN
<phi_init0>,	  8.85e-12,   <D1>,  <Kb_NH3>,  <c1_init0_B>,   <z1_val>,     <D2>,  <key1>,
**
**     cbarN0,      zN_mob,           cRf,   zf 	       cOH0       zOH_mob    DiffOH, <omgOH0>
      <c2_init0_B>,   <z2_val>,     <c_bound_B>, <z_bound_B>,     <c4_init0>, <z4_val>, <D4> ,  <omg40>
** 0.25,   -1,     1000,   1,      3,	3
**     nlSdv	ngSdv
		5,	     7
********************************************************
** Dummy mesh material properties
**
*Solid section, elset=el_dummy, material=umaterial
*Hourglass Stiffness
80.e2
**
*Material, name=umaterial
**
*Elastic
1e-20, 0.3
*User output variables
7
**
** *user material, constant=0
** **
** *Depvar
** 19
** 1, cbar
** 2, T11
** 3, T22
** 4, T12
** 5, T33
** 6, Tes11
** 7, Tes22
** 8, Tes12
** 9, Tes33
** 10, Tme11
** 11, Tme22
** 12, Tme12
** 13, Tme33
** 14, e1
** 15, e2
** 16, j1
** 17, j2
** 18, pbar
** 19, Js
**
**
*Density
1.0
**
*Specific heat
1.0
**
**
************************************************************************
**			BOUNDARY CONDITIONS
************************************************************************
** 2
** right,1,-1.0
** ref_node,1,1.0
**
***EQUATION
**2
**front,3,1.0
**ref_node,3,-1.0
**
***EQUATION
**2
**back,3,1.0
**ref_node2,3,-1.0
************************************************************************
**			INITIAL CONDITIONS
************************************************************************
**
*Initial conditions, type=temperature
nall, 0., <omg_init0_A>, <omg1_init0_A>, <omg2_init0_A>, 0., 0.
**nall_lower,  0., 0., <omg_init0_B>, <omg1_init0_B>, <omg2_init0_B>
**, <omg1_init>, <omg2_init>
************************************************************************
**			AMPLITUDE DEFINITION
************************************************************************
**
*Amplitude, name=amp_1_A
0.,<omg_init0_A>, <tramp>, <omg_init_A>, <tload>, <omg_init_A>
*Amplitude, name=amp_1b_A
0.,<omg1_init0_A>, <tramp>, <omg1_init_A>, <tload>, <omg1_init_A>
*Amplitude, name=amp_1c_A
0.,<omg2_init0_A>, <tramp>, <omg2_init_A>, <tload>, <omg2_init_A>
*Amplitude, name=amp_1d_A
0.,<omg3_init0>, <tramp>, <omg3_init_A>, <tload>, <omg3_init_A>
*Amplitude, name=amp_1_B
0.,<omg_init0_B>, <tramp>, <omg_init_B>
*Amplitude, name=amp_1b_B
0.,<omg1_init0_B>, <tramp>, <omg1_init_B>
*Amplitude, name=amp_1c_B
0.,<omg2_init0_B>, <tramp>, <omg2_init_B>
*Amplitude, name=amp_1d_B
0.,<omg4_init0>, <tramp>, <omg4_init_B>, <tload>, <omg4_init_B>
*******
*Amplitude, name=amp_cycle_A
**, definition= Smooth Step
0.,<omg_init_A>,<tramp>,<omg_sol1>,<tload>,<omg_sol1>
*Amplitude, name=amp_cycle1_A
**, definition= Smooth Step
0.,<omg1_init_A>,<tramp>,<omg1_sol1>,<tload>,<omg1_sol1>
*Amplitude, name=amp_cycle2_A
**, definition= Smooth Step
0.,<omg2_init_A>,<tramp>,<omg2_sol1>,<tload>,<omg2_sol1>
*Amplitude, name=amp_cycle3_A
**, definition= Smooth Step
0.,<omg3_init_A>,<tramp>,<omg3_sol1>,<tload>,<omg3_sol1>
**
*Amplitude, name=amp_cycle_B
**, definition= Smooth Step
0.,<omg_init_B>,<tramp>,<omg_sol1>,<tload>,<omg_sol1>
*Amplitude, name=amp_cycle1_B
**, definition= Smooth Step
0.,<omg1_init_B>,<tramp>,<omg1_sol1>,<tload>,<omg1_sol1>
*Amplitude, name=amp_cycle2_B
**, definition= Smooth Step
0.,<omg2_init_B>,<tramp>,<omg2_sol1>,<tload>,<omg2_sol1>
*Amplitude, name=amp_cycle3_B
**, definition= Smooth Step
0.,<omg4_init_B>,<tramp>,<omg4_sol1>,<tload>,<omg4_sol1>
****
*Amplitude, name=amp_Sol, definition= Smooth Step
0.,<omg_sol1>,<tload1>,<omg_sol2>
*Amplitude, name=amp_pos, definition= Smooth Step
0.,<omg1_sol1>,<tload1>,<omg1_sol2>
*Amplitude, name=amp_neg, definition= Smooth Step
0.,<omg2_sol1>,<tload1>,<omg2_sol2>
*Amplitude, name=amp_pH1, definition= Smooth Step
0.,<omg3_sol1>,<tload1>,<omg3_sol2>,<tload2>,<omg3_sol2>,<tload3>,<omg3_sol3>
<tload4>,<omg3_sol3>
*Amplitude, name=amp_pH2
**, definition= Smooth Step
0.,<omg3_sol2>,<tload1b>,<omg3_sol3>,<tload2b>,<omg3_sol3>
*Amplitude, name=amp_pH3, definition= Smooth Step
0.,<omg3_sol3>,<tload1b>,<omg3_sol4>,<tload2b>,<omg3_sol4>
**,<tload3>,<omg3_sol1>
**<tload4>,<omg3_sol1>
*Amplitude, name=amp_pH1_, definition= Smooth Step
0.,<omg4_sol1>,<tload1>,<omg4_sol2>,<tload2>,<omg4_sol2>,<tload3>,<omg4_sol3>
<tload4>,<omg4_sol3>
*Amplitude, name=amp_pH2_
**, definition= Smooth Step
0.,<omg4_sol2>,<tload1b>,<omg4_sol3>,<tload2b>,<omg4_sol3>,<tload3>,<omg4_sol1>
<tload4>,<omg4_sol1>
*Amplitude, name=amp_pH3_, definition= Smooth Step
0.,<omg4_sol3>,<tload1b>,<omg4_sol4>,<tload2b>,<omg4_sol4>
************************************************************************
**			STEP DEFINITION
************************************************************************
************************************************************************
*Step, Name=swell, nlgeom=yes, inc=50000
*Coupled temperature-displacement, deltmx=2000, stabilize, factor=0.001
<ti>,<tload>,<tmin>,<tlim>
*CONTROLS, PARAMETERS=TIME INCREMENTATION
,,,,,,,30,,,,,,
***Solution technique, type=separated
***CONTROLS, PARAMETERS=LINE SEARCH
**10,1.0,0.0001,0.25,0.10
**
** 	DISPLACEMENT B.C.
*Boundary,op=mod
left,1,1,0.
left_back_bottom,2,3,0.
left_bottom,2,2,0.
**left_front_bottom,2,2,0.
back,3,3,0.
**front,3,3
**left_back_bottom,2,3
**left_front_bottom,2,2
**
**nall,12,12,0.
**nall,4,4,0.
*Boundary,amplitude=amp_1_A
nall,12,12,1.
*Boundary,amplitude=amp_1b_A
nall,13,13,1.
*Boundary,amplitude=amp_1c_A
nall,14,14,1.
*Boundary,amplitude=amp_1d_A
nall,15,15,1.
*Boundary,amplitude=amp_1d_B
nall,16,16,1.
**
**
**	OUTPUTS
**
*Output, field
**, number interval=40
*node output, nset=nall
u,nt
*Element output, elset=el_dummy
le,UVARM
**
*Output, history
*Element output, elset=el_dummy
UVARM1
***Node output, nset=ref_node
**rf2
*End Step
************************************************************************
*Step, Name=equilibriate1, nlgeom=yes, inc=50000
*Coupled temperature-displacement, deltmx=2000
**, stabilize
<ti>,<tload>,<tmin>,<tlim>
*CONTROLS, PARAMETERS=TIME INCREMENTATION
,,,,,,,30,,,,,,
***Solution technique, type=separated
*CONTROLS, PARAMETERS=LINE SEARCH
10,1.0,0.0001,0.25,0.10
**
** 	DISPLACEMENT B.C.
*Boundary,op=new
left,1,1,0.
left_back_bottom,2,2,0.
left_bottom,2,2,0.
**left_back_bottom,2,3,0.
**left_front_bottom,2,2,0.
back,3,3,0.
**left_back_bottom,2,3
**left_front_bottom,2,2
**
**nall,5,5,0.
**nall_upper,12,12,0.
**nall_lower,12,12,0.
**nall,4,4,0.
**nall,12,12,<omg1_init>
**nall,13,13,<omg2_init>
**nall,11,11,<omg_init>
**
*Boundary,amplitude=amp_cycle_A,op=new
nall,12,12,1.
outer,12,12,1.
*Boundary,amplitude=amp_cycle1_A,op=new
nall,13,13,1.
outer,13,13,1.
*Boundary,amplitude=amp_cycle2_A,op=new
nall,14,14,1.
outer,14,14,1.
*Boundary,amplitude=amp_cycle3_A,op=new
nall,15,15,1.
outer,15,15,1.
*Boundary,amplitude=amp_cycle3_B,op=new
nall,16,16,1.
outer,16,16,1.
**
**	OUTPUTS
**
*Output, field
**, number interval=40
*node output, nset=nall
u,nt
*Element output, elset=el_dummy
le,UVARM
**
*Output, history
***Node output, nset=ref_node
**rf2
*End Step
************************************************************************
************************************************************************
*Step, Name=equilibrate2, nlgeom=yes, inc=50000
*Coupled temperature-displacement, deltmx=2000
**, stabilize, factor=0.005
<ti>,<tload2>,<tmin>,<tlim2>
*CONTROLS, PARAMETERS=TIME INCREMENTATION
,,,,,,,30,,,,,,
***Solution technique, type=separated
*CONTROLS, PARAMETERS=LINE SEARCH
10,1.0,0.0001,0.25,0.10
**
** 	DISPLACEMENT B.C.
*Boundary,op=new,type=velocity
left,1,1,0.
left_bottom,2,2,0.
**left_back_bottom,2,3,0.
**left_front_bottom,2,2,0.
back,3,3,0.
**back,3,3
**bottom,2,2
**left_back_bottom,2,3
**left_front_bottom,2,2
**
*Boundary, amplitude=amp_sol, op=new
outer,12,12,1.
*Boundary, amplitude = amp_pos, op=new
outer,13,13,1.
*Boundary, amplitude = amp_neg, op=new
outer,14,14,1.
**
*Boundary,amplitude=amp_pH1,op=new
outer,15,15,1.
*Boundary,amplitude=amp_pH1_,op=new
outer,16,16,1.
**
**	OUTPUTS
**
*Output, field
**, number interval=40
*node output, nset=nall
u,nt
*Element output, elset=el_dummy
le,UVARM
**
*Output, history
***Node output, nset=ref_node
**rf2
*End Step
************************************************************************
*Step, Name=increase, nlgeom=yes, inc=50000
*Coupled temperature-displacement, deltmx=2000
**, stabilize, factor= 0.005
<ti>,<tload2b>,<tmin>,<tlim2>
*CONTROLS, PARAMETERS=TIME INCREMENTATION
,,,,,,,30,,,,,,
***Solution technique, type=separated
*CONTROLS, PARAMETERS=LINE SEARCH
10,1.0,0.0001,0.25,0.10
**
** 	DISPLACEMENT B.C.
*Boundary,op=new,type=velocity
left,1,1,0.
left_bottom,2,2,0.
**left_back_bottom,2,3,0.
**left_front_bottom,2,2,0.
back,3,3,0.
**back,3,3
**bottom,2,2
**left_back_bottom,2,3
**left_front_bottom,2,2
**
*Boundary, op=new
outer,12,12,<omg_sol2>
outer,13,13,<omg1_sol2>
outer,14,14,<omg2_sol2>
**
*Boundary,amplitude=amp_pH2,op=new
outer,15,15,1.
*Boundary, amplitude=amp_pH2_,op=new
outer,16,16,1.
**
**	OUTPUTS
**
*Output, field, number interval=240
*node output, nset=nall
u,nt
*Element output, elset=el_dummy
le,UVARM
**
*Output, history
***Node output, nset=ref_node
**rf2
*End Step
************************************************************************
*Step, Name=decrease, nlgeom=yes, inc=50000
*Coupled temperature-displacement, deltmx=2000, stabilize, factor=0.001
<ti>,<tload2b>,<tmin>,<tlim2>
*CONTROLS, PARAMETERS=TIME INCREMENTATION
,,,,,,,30,,,,,,
***Solution technique, type=separated
*CONTROLS, PARAMETERS=LINE SEARCH
10,1.0,0.0001,0.25,0.10
**
** 	DISPLACEMENT B.C.
*Boundary,op=new,type=velocity
left,1,1,0.
left_bottom,2,2,0.
**left_back_bottom,2,3,0.
**left_front_bottom,2,2,0.
back,3,3,0.
**back,3,3
**bottom,2,2
**left_back_bottom,2,3
**left_front_bottom,2,2
**
*Boundary, op=new
outer,12,12,<omg_sol2>
outer,13,13,<omg1_sol2>
outer,14,14,<omg2_sol2>
**
*Boundary,amplitude=amp_pH3,op=new
outer,15,15,1.
*Boundary, amplitude=amp_pH3_,op=new
outer,16,16,1.
**
**	OUTPUTS
**
*Output, field, number interval=240
*node output, nset=nall
u,nt
*Element output, elset=el_dummy
le,UVARM
**
*Output, history
***Node output, nset=ref_node
**rf2
*End Step
************************************************************************