*Heading
** Job name: Job-1 Model name: Model-1
** Generated by: Abaqus/CAE 2017
*Preprint, echo=NO, model=NO, history=NO, contact=NO
**
** PARTS
**
*Part, name=Lithium_SE
*Node
      1,           0.,          20.
      2,          20.,          20.
      3,          20.,          50.
      4,           0.,          50.
      5,         250.,          20.
      6,         250.,          50.
      7,         480.,          20.
      8,         480.,          50.
      9,         500.,          20.
     10,         500.,          50.
     11,         500.,          15.
     12,           0.,          15.
     13,           0.,           0.
     14,         500.,           0.
     15,           4.,          20.
     16,           8.,          20.
     17,          12.,          20.
     18,          16.,          20.
     19,          20.,   24.2857151
     20,          20.,   28.5714283
** ... 2266 like lines cut
*Element, type=CPE4H
 1,   1,  15, 555,  34
 2,  15,  16, 556, 555
 3,  16,  17, 557, 556
 4,  17,  18, 558, 557
 5,  18,   2,  19, 558
 6,  34, 555, 559,  33
 7, 555, 556, 560, 559
 8, 556, 557, 561, 560
 9, 557, 558, 562, 561
10, 558,  19,  20, 562
11,  33, 559, 563,  32
12, 559, 560, 564, 563
13, 560, 561, 565, 564
14, 561, 562, 566, 565
15, 562,  20,  21, 566
16,  32, 563, 567,  31
17, 563, 564, 568, 567
18, 564, 565, 569, 568
19, 565, 566, 570, 569
20, 566,  21,  22, 570
** ... 2122 like lines cut
*Nset, nset=Set-1
    1,    2,    3,    4,    5,    6,    7,    8,   15,   16,   17,   18,   19,   20,   21,   22
   23,   24,   25,   26,   27,   28,   29,   30,   31,   32,   33,   34,   35,   36,   37,   38
   39,   40,  155,  156,  157,  158,  159,  160,  161,  162,  163,  164,  165,  166,  167,  168
  169,  170,  171,  172,  173,  174,  175,  176,  177,  178,  179,  180,  181,  182,  183,  184
  185,  186,  187,  188,  189,  190,  191,  192,  193,  194,  195,  196,  197,  198,  199,  200
  201,  202,  203,  204,  205,  206,  207,  208,  209,  210,  211,  212,  213,  214,  215,  216
  217,  218,  219,  220,  221,  222,  223,  224,  225,  226,  227,  228,  229,  230,  231,  232
  233,  234,  235,  236,  237,  238,  239,  240,  241,  242,  243,  244,  245,  246,  247,  248
  249,  250,  251,  252,  253,  254,  255,  256,  257,  258,  259,  260,  261,  262,  263,  264
  265,  266,  267,  268,  269,  270,  271,  272,  273,  274,  555,  556,  557,  558,  559,  560
  561,  562,  563,  564,  565,  566,  567,  568,  569,  570,  571,  572,  573,  574,  575,  576
  577,  578,  921,  922,  923,  924,  925,  926,  927,  928,  929,  930,  931,  932,  933,  934
  935,  936,  937,  938,  939,  940,  941,  942,  943,  944,  945,  946,  947,  948,  949,  950
  951,  952,  953,  954,  955,  956,  957,  958,  959,  960,  961,  962,  963,  964,  965,  966
  967,  968,  969,  970,  971,  972,  973,  974,  975,  976,  977,  978,  979,  980,  981,  982
  983,  984,  985,  986,  987,  988,  989,  990,  991,  992,  993,  994,  995,  996,  997,  998
  999, 1000, 1001, 1002, 1003, 1004, 1005, 1006, 1007, 1008, 1009, 1010, 1011, 1012, 1013, 1014
 1015, 1016, 1017, 1018, 1019, 1020, 1021, 1022, 1023, 1024, 1025, 1026, 1027, 1028, 1029, 1030
 1031, 1032, 1033, 1034, 1035, 1036, 1037, 1038, 1039, 1040, 1041, 1042, 1043, 1044, 1045, 1046
 1047, 1048, 1049, 1050, 1051, 1052, 1053, 1054, 1055, 1056, 1057, 1058, 1059, 1060, 1061, 1062
** ... 13 like lines cut
*Elset, elset=Set-1
   1,   2,   3,   4,   5,   6,   7,   8,   9,  10,  11,  12,  13,  14,  15,  16
  17,  18,  19,  20,  21,  22,  23,  24,  25,  26,  27,  28,  29,  30,  31,  32
  33,  34,  35, 442, 443, 444, 445, 446, 447, 448, 449, 450, 451, 452, 453, 454
 455, 456, 457, 458, 459, 460, 461, 462, 463, 464, 465, 466, 467, 468, 469, 470
 471, 472, 473, 474, 475, 476, 477, 478, 479, 480, 481, 482, 483, 484, 485, 486
 487, 488, 489, 490, 491, 492, 493, 494, 495, 496, 497, 498, 499, 500, 501, 502
 503, 504, 505, 506, 507, 508, 509, 510, 511, 512, 513, 514, 515, 516, 517, 518
 519, 520, 521, 522, 523, 524, 525, 526, 527, 528, 529, 530, 531, 532, 533, 534
 535, 536, 537, 538, 539, 540, 541, 542, 543, 544, 545, 546, 547, 548, 549, 550
 551, 552, 553, 554, 555, 556, 557, 558, 559, 560, 561, 562, 563, 564, 565, 566
 567, 568, 569, 570, 571, 572, 573, 574, 575, 576, 577, 578, 579, 580, 581, 582
 583, 584, 585, 586, 587, 588, 589, 590, 591, 592, 593, 594, 595, 596, 597, 598
 599, 600, 601, 602, 603, 604, 605, 606, 607, 608, 609, 610, 611, 612, 613, 614
 615, 616, 617, 618, 619, 620, 621, 622, 623, 624, 625, 626, 627, 628, 629, 630
 631, 632, 633, 634, 635, 636, 637, 638, 639, 640, 641, 642, 643, 644, 645, 646
 647, 648, 649, 650, 651, 652, 653, 654, 655, 656, 657, 658, 659, 660, 661, 662
 663, 664, 665, 666, 667, 668, 669, 670, 671, 672, 673, 674, 675, 676, 677, 678
 679, 680, 681, 682, 683, 684, 685, 686, 687, 688, 689, 690, 691, 692, 693, 694
 695, 696, 697, 698, 699, 700, 701, 702, 703, 704, 705, 706, 707, 708, 709, 710
 711, 712, 713, 714, 715, 716, 717, 718, 719, 720, 721, 722, 723, 724, 725, 726
** ... 8 like lines cut
*Nset, nset=Set-2
    2,    3,    5,    6,    7,    8,    9,   10,   19,   20,   21,   22,   23,   24,   35,   36
   37,   38,   39,   40,   41,   42,   43,   44,   45,   46,   47,   48,   49,   50,   51,   52
   53,   54,   55,   56,   57,   58,   59,   60,   61,   62,   63,   64,   65,   66,   67,   68
   69,   70,   71,   72,   73,   74,   75,   76,   77,   78,   79,   80,   81,   82,   83,   84
   85,   86,   87,   88,   89,   90,   91,   92,   93,   94,   95,   96,   97,   98,   99,  100
  101,  102,  103,  104,  105,  106,  107,  108,  109,  110,  111,  112,  113,  114,  115,  116
  117,  118,  119,  120,  121,  122,  123,  124,  125,  126,  127,  128,  129,  130,  131,  132
  133,  134,  135,  136,  137,  138,  139,  140,  141,  142,  143,  144,  145,  146,  147,  148
  149,  150,  151,  152,  153,  154,  155,  156,  157,  158,  159,  160,  275,  276,  277,  278
  279,  280,  281,  282,  283,  284,  285,  286,  287,  288,  579,  580,  581,  582,  583,  584
  585,  586,  587,  588,  589,  590,  591,  592,  593,  594,  595,  596,  597,  598,  599,  600
  601,  602,  603,  604,  605,  606,  607,  608,  609,  610,  611,  612,  613,  614,  615,  616
  617,  618,  619,  620,  621,  622,  623,  624,  625,  626,  627,  628,  629,  630,  631,  632
  633,  634,  635,  636,  637,  638,  639,  640,  641,  642,  643,  644,  645,  646,  647,  648
  649,  650,  651,  652,  653,  654,  655,  656,  657,  658,  659,  660,  661,  662,  663,  664
  665,  666,  667,  668,  669,  670,  671,  672,  673,  674,  675,  676,  677,  678,  679,  680
  681,  682,  683,  684,  685,  686,  687,  688,  689,  690,  691,  692,  693,  694,  695,  696
  697,  698,  699,  700,  701,  702,  703,  704,  705,  706,  707,  708,  709,  710,  711,  712
  713,  714,  715,  716,  717,  718,  719,  720,  721,  722,  723,  724,  725,  726,  727,  728
  729,  730,  731,  732,  733,  734,  735,  736,  737,  738,  739,  740,  741,  742,  743,  744
** ... 13 like lines cut
*Elset, elset=Set-2
  36,  37,  38,  39,  40,  41,  42,  43,  44,  45,  46,  47,  48,  49,  50,  51
  52,  53,  54,  55,  56,  57,  58,  59,  60,  61,  62,  63,  64,  65,  66,  67
  68,  69,  70,  71,  72,  73,  74,  75,  76,  77,  78,  79,  80,  81,  82,  83
  84,  85,  86,  87,  88,  89,  90,  91,  92,  93,  94,  95,  96,  97,  98,  99
 100, 101, 102, 103, 104, 105, 106, 107, 108, 109, 110, 111, 112, 113, 114, 115
 116, 117, 118, 119, 120, 121, 122, 123, 124, 125, 126, 127, 128, 129, 130, 131
 132, 133, 134, 135, 136, 137, 138, 139, 140, 141, 142, 143, 144, 145, 146, 147
 148, 149, 150, 151, 152, 153, 154, 155, 156, 157, 158, 159, 160, 161, 162, 163
 164, 165, 166, 167, 168, 169, 170, 171, 172, 173, 174, 175, 176, 177, 178, 179
 180, 181, 182, 183, 184, 185, 186, 187, 188, 189, 190, 191, 192, 193, 194, 195
 196, 197, 198, 199, 200, 201, 202, 203, 204, 205, 206, 207, 208, 209, 210, 211
 212, 213, 214, 215, 216, 217, 218, 219, 220, 221, 222, 223, 224, 225, 226, 227
 228, 229, 230, 231, 232, 233, 234, 235, 236, 237, 238, 239, 240, 241, 242, 243
 244, 245, 246, 247, 248, 249, 250, 251, 252, 253, 254, 255, 256, 257, 258, 259
 260, 261, 262, 263, 264, 265, 266, 267, 268, 269, 270, 271, 272, 273, 274, 275
 276, 277, 278, 279, 280, 281, 282, 283, 284, 285, 286, 287, 288, 289, 290, 291
 292, 293, 294, 295, 296, 297, 298, 299, 300, 301, 302, 303, 304, 305, 306, 307
 308, 309, 310, 311, 312, 313, 314, 315, 316, 317, 318, 319, 320, 321, 322, 323
 324, 325, 326, 327, 328, 329, 330, 331, 332, 333, 334, 335, 336, 337, 338, 339
 340, 341, 342, 343, 344, 345, 346, 347, 348, 349, 350, 351, 352, 353, 354, 355
** ... 8 like lines cut
*Nset, nset=Set-3
    1,    2,    5,    7,    9,   11,   12,   15,   16,   17,   18,   98,   99,  100,  101,  102
  103,  104,  105,  106,  107,  108,  109,  110,  111,  112,  113,  114,  115,  116,  117,  118
  119,  120,  121,  122,  123,  124,  125,  126,  127,  128,  129,  130,  131,  132,  133,  134
  135,  136,  137,  138,  139,  140,  141,  142,  143,  144,  145,  146,  147,  148,  149,  150
  151,  152,  153,  154,  218,  219,  220,  221,  222,  223,  224,  225,  226,  227,  228,  229
  230,  231,  232,  233,  234,  235,  236,  237,  238,  239,  240,  241,  242,  243,  244,  245
  246,  247,  248,  249,  250,  251,  252,  253,  254,  255,  256,  257,  258,  259,  260,  261
  262,  263,  264,  265,  266,  267,  268,  269,  270,  271,  272,  273,  274,  275,  276,  277
  278,  289,  290,  291,  292,  293,  294,  295,  296,  297,  298,  299,  300,  301,  302,  303
  304,  305,  306,  307,  308,  309,  310,  311,  312,  313,  314,  315,  316,  317,  318,  319
  320,  321,  322,  323,  324,  325,  326,  327,  328,  329,  330,  331,  332,  333,  334,  335
  336,  337,  338,  339,  340,  341,  342,  343,  344,  345,  346,  347,  348,  349,  350,  351
  352,  353,  354,  355,  356,  357,  358,  359,  360,  361,  362,  363,  364,  365,  366,  367
  368,  369,  370,  371,  372,  373,  374,  375,  376,  377,  378,  379,  380,  381,  382,  383
  384,  385,  386,  387,  388,  389,  390,  391,  392,  393,  394,  395,  396,  397,  398,  399
  400,  401,  402,  403,  404,  405,  406,  407,  408,  409,  410,  411,  412,  413,  545,  546
  547,  548,  549,  550,  551,  552,  553,  554, 1662, 1663, 1664, 1665, 1666, 1667, 1668, 1669
 1670, 1671, 1672, 1673, 1674, 1675, 1676, 1677, 1678, 1679, 1680, 1681, 1682, 1683, 1684, 1685
 1686, 1687, 1688, 1689, 1690, 1691, 1692, 1693, 1694, 1695, 1696, 1697, 1698, 1699, 1700, 1701
 1702, 1703, 1704, 1705, 1706, 1707, 1708, 1709, 1710, 1711, 1712, 1713, 1714, 1715, 1716, 1717
** ... 36 like lines cut
*Elset, elset=Set-3, generate
 1387,  2142,     1
*Nset, nset=Set-4
   11,   12,   13,   14,  289,  290,  291,  292,  293,  294,  295,  296,  297,  298,  299,  300
  301,  302,  303,  304,  305,  306,  307,  308,  309,  310,  311,  312,  313,  314,  315,  316
  317,  318,  319,  320,  321,  322,  323,  324,  325,  326,  327,  328,  329,  330,  331,  332
  333,  334,  335,  336,  337,  338,  339,  340,  341,  342,  343,  344,  345,  346,  347,  348
  349,  350,  351,  352,  353,  354,  355,  356,  357,  358,  359,  360,  361,  362,  363,  364
  365,  366,  367,  368,  369,  370,  371,  372,  373,  374,  375,  376,  377,  378,  379,  380
  381,  382,  383,  384,  385,  386,  387,  388,  389,  390,  391,  392,  393,  394,  395,  396
  397,  398,  399,  400,  401,  402,  403,  404,  405,  406,  407,  408,  409,  410,  411,  412
  413,  414,  415,  416,  417,  418,  419,  420,  421,  422,  423,  424,  425,  426,  427,  428
  429,  430,  431,  432,  433,  434,  435,  436,  437,  438,  439,  440,  441,  442,  443,  444
  445,  446,  447,  448,  449,  450,  451,  452,  453,  454,  455,  456,  457,  458,  459,  460
  461,  462,  463,  464,  465,  466,  467,  468,  469,  470,  471,  472,  473,  474,  475,  476
  477,  478,  479,  480,  481,  482,  483,  484,  485,  486,  487,  488,  489,  490,  491,  492
  493,  494,  495,  496,  497,  498,  499,  500,  501,  502,  503,  504,  505,  506,  507,  508
  509,  510,  511,  512,  513,  514,  515,  516,  517,  518,  519,  520,  521,  522,  523,  524
  525,  526,  527,  528,  529,  530,  531,  532,  533,  534,  535,  536,  537,  538,  539,  540
  541,  542,  543,  544, 1287, 1288, 1289, 1290, 1291, 1292, 1293, 1294, 1295, 1296, 1297, 1298
 1299, 1300, 1301, 1302, 1303, 1304, 1305, 1306, 1307, 1308, 1309, 1310, 1311, 1312, 1313, 1314
 1315, 1316, 1317, 1318, 1319, 1320, 1321, 1322, 1323, 1324, 1325, 1326, 1327, 1328, 1329, 1330
 1331, 1332, 1333, 1334, 1335, 1336, 1337, 1338, 1339, 1340, 1341, 1342, 1343, 1344, 1345, 1346
** ... 20 like lines cut
*Elset, elset=Set-4, generate
  883,  1386,     1
** Section: Section-1
*Solid Section, elset=Set-1, material=SE1
1.,
** Section: Section-2
*Solid Section, elset=Set-2, material=SE2
1.,
** Section: Section-4
*Solid Section, elset=Set-4, material=Lithium_sub
1.,
** Section: Section-3
*Solid Section, elset=Set-3, material=Lithium_ip
1.,
*End Part
**  
**
** ASSEMBLY
**
*Assembly, name=Assembly
**  
*Instance, name=Lithium_SE-1, part=Lithium_SE
*End Instance
**  
*Nset, nset=bottom, instance=Lithium_SE-1
  13,  14, 417, 418, 419, 420, 421, 422, 423, 424, 425, 426, 427, 428, 429, 430
 431, 432, 433, 434, 435, 436, 437, 438, 439, 440, 441, 442, 443, 444, 445, 446
 447, 448, 449, 450, 451, 452, 453, 454, 455, 456, 457, 458, 459, 460, 461, 462
 463, 464, 465, 466, 467, 468, 469, 470, 471, 472, 473, 474, 475, 476, 477, 478
 479, 480, 481, 482, 483, 484, 485, 486, 487, 488, 489, 490, 491, 492, 493, 494
 495, 496, 497, 498, 499, 500, 501, 502, 503, 504, 505, 506, 507, 508, 509, 510
 511, 512, 513, 514, 515, 516, 517, 518, 519, 520, 521, 522, 523, 524, 525, 526
 527, 528, 529, 530, 531, 532, 533, 534, 535, 536, 537, 538, 539, 540, 541
*Elset, elset=bottom, instance=Lithium_SE-1, generate
 1261,  1386,     1
*Nset, nset=left, instance=Lithium_SE-1
   1,   4,  12,  13,  29,  30,  31,  32,  33,  34, 414, 415, 416, 550, 551, 552
 553, 554
*Elset, elset=left, instance=Lithium_SE-1
    1,    6,   11,   16,   21,   26,   31, 1008, 1134, 1260, 1386, 1387, 1513, 1639, 1765, 1891
 2017,
*Nset, nset=right, instance=Lithium_SE-1
   9,  10,  11,  14, 279, 280, 281, 282, 283, 284, 542, 543, 544, 545, 546, 547
 548, 549
*Elset, elset=right, instance=Lithium_SE-1
  876,  877,  878,  879,  880,  881,  882,  883, 1009, 1135, 1261, 1512, 1638, 1764, 1890, 2016
 2142,
*Elset, elset=_top_surf_S3, internal, instance=Lithium_SE-1, generate
 31,  35,   1
*Elset, elset=_top_surf_S2, internal, instance=Lithium_SE-1, generate
  42,  847,    7
*Elset, elset=_top_surf_S4, internal, instance=Lithium_SE-1, generate
 848,  876,    7
*Surface, type=ELEMENT, name=top_surf
_top_surf_S3, S3
_top_surf_S2, S2
_top_surf_S4, S4
*End Assembly
** 
** Element Controls
**
*Section Controls, name=EC-1, ELEMENT DELETION=YES, MAX DEGRADATION=1., hourglass=STIFFNESS, VISCOSITY=1.E-5
1., 1., 1. 
** MATERIALS
** 
*Material, name=Lithium_ip
*User material, Constants=16
**Eyoung poisson   Apre    Qact  To    mRate    Y0       Ho    
  7.81e3,   0.38,  4.254E4, 37., 298., 0.15,   0.95E0,   10.E0 
** Ysat   ahard nhard ,eBarLmt 
  2.0E0,   2.0, 0.05, 13.e-6, 0.,1.,0.,1.036e2
*Depvar
24
10,nuP
12,Y
14,ebarp
15,conc
*Material, name=Lithium_sub
*User material, Constants=16
**Eyoung poisson   Apre    Qact  To    mRate    Y0       Ho    
  7.81e3,   0.38,  4.254E4, 37., 298., 0.15,   0.95E0,   10.E0 
** Ysat   ahard nhard ,eBarLmt 
  2.0E0,   2.0, 0.05, 13.e-6, 0.,1.,0.,0.
*Depvar
24
10,nuP
12,Y
14,ebarp
15,conc
*Material, name=SE1
*Elastic
**200000., 0.25
150000., 0.25
*Material, name=SE2
*Elastic
**200000., 0.25
150000., 0.25
*Material, name=CZMMaterial-1 
*Damage Initiation, criterion=QUADS
10.,10.,10.
*Damage Evolution, type=ENERGY
 1.,1.,1.
*Elastic, type=TRACTION
7.E5,7.E5,7.E5
**
*Material, name=CZMMaterial-2 
*Damage Initiation, criterion=QUADS
10.,10.,10.
*Damage Evolution, type=ENERGY
 1.,1.,1.
*Elastic, type=TRACTION
7.E5,7.E5,7.E5
**
*Material, name=CZMMaterial-3 
*Damage Initiation, criterion=QUADS
100.,100.,100.
*Damage Evolution, type=ENERGY
**10.,10.,10.
6.67,6.67,6.67
*Elastic, type=TRACTION
**2.E7,2.E7,2.E7
1.5E7,1.5E7,1.5E7
** ----------------------------------------------------------------
** 
*Amplitude, name=amp_new
0.,0.,1.,1.,1000.,1.
*************************************************************
** STEP: Step-1
** 
*Step, name=Step-1, nlgeom=YES, inc=10000
*Static, stabilize, factor=0.0002, allsdtol=0, continue=NO
0.1, 2160., 1e-05, 20.
*CONTROLS, PARAMETERS=TIME INCREMENTATION
,,,,,,,20,,,,,,
** 
** BOUNDARY CONDITIONS
** 
** Name: BC-1 Type: Displacement/Rotation
*Boundary
left, 1, 1
right, 1, 1
bottom,2,2
*Dsload,amplitude=amp_new
top_surf,P,0.1
** Name: BC-2 Type: Displacement/Rotation
** 
** OUTPUT REQUESTS
** 
*Restart, write, frequency=0
** 
** FIELD OUTPUT: F-Output-1
** 
*Output, field, frequency=10
*Node Output
RF, U
*Element Output, directions=YES
LE, S, SDEG, STATUS, SDV
** 
** HISTORY OUTPUT: H-Output-1
**
*End Step 