**************************************************************************
**INPUT DECK FOR LITHIUM DEPOSITION IN A CAVITY
**
***************************************************************************
*HEADING
CAVITY DEPOSITION
************************************************************************-
**
**	UNITS:	Length - microns = 1e-6 meters
**		Mass - kg
**		Time - sec
**		Angle - radians
**		Temperature - Kelvin 
**		Amount of substance - 1e-12 mol
****************
**		Force - 1.e-6 N
**		Stress - 1.e6 Pa = 1 MPa 
**		Energy - 1e-12 J
**		Chemical Potential - J/mol
**		Diffusivity - 1e-12 m^2/s
**		Concentration - 1e6 mol/m^3
**              flux          - mol/(m^2 s)
**
************************************************************************
**			PARAMETERS for Lithium
************************************************************************
*Parameter
*******cDot = 1.e-3 ----------------OLD VALUES
*******Omega = 13.e0 ---------------OLD VALUES
**
**
Omega =13.e-6
**
**
i=5
**Current in mA/cm2
Farad=96485
V_by_A = 0.538
**18.13(Area of IP from CAE)/33.69(length of top_surf)
**thickness in microns for interphase layer 
cDot = 1.e7*i/Farad/V_by_A
**cDot = 0.
**
cMax = 5.e5
tload=cMax/cDot
**
cLim = 3.e2
tMax = cLim/cDot
**For aniso
alpha1 = 0.e0
alpha2 = 1.e0
alpha3 = 0.e0
**
********************************************************************
********************************************************************
*Node
      1,           0.,          3.5
      2,    1.4815383,   2.23461533
      3,   1.67705095,           1.
      4,          15.,           1.
      5,          15.,          10.
      6,           0.,          10.
      7,           0.,          2.5
      8,  0.493846089,   2.07820511
      9,  0.756153882,  0.421794921
     10,         1.25,           0.
     11,          15.,           0.
     12, 0.0599840023,   3.49880028
     13,  0.127750993,   3.49454999
     14,  0.204124227,   3.48604631
     15,  0.289903998,   3.47171855
     16,  0.385795832,   3.44953847
     17,   0.49229759,   3.41691327
     18,  0.609527349,   3.37057519
     19,  0.736968577,   3.30647516
     20,  0.873102665,   3.21970963
** ... 1154 like lines cut
*Element, type=CPE4H, elset=se
  1,  19,  20, 283, 497
  2, 432, 434,  75,  76
  3, 312, 279, 256, 311
  4, 320, 285, 286, 321
  5, 251, 250,  23,  24
  6, 322, 255, 253, 288
  7,  26,  27, 254, 253
  8, 248, 283,  20,  21
  9, 285, 354, 283, 248
 10,  80,  81, 316, 281
 11,  21,  22, 249, 248
 12, 440, 416, 420, 529
 13, 429, 413, 425, 431
 14, 286, 249, 250, 287
 15, 261, 257,  33,  34
 16,   2,  25, 255, 252
 17, 259, 254,  28,  29
 18,   3,  28, 254,  27
 19,  31,  32, 277, 258
 20, 250, 249,  22,  23
** ... 1054 like lines cut
*Nset, nset=se_bottom
   7,   8,   9,  10,  11,  99, 100, 101, 102, 103, 104, 105, 106, 107, 108, 109
 110, 111, 112, 113, 114, 115, 116, 117, 118, 119, 120, 121, 122, 123, 124, 125
 126, 127, 128, 129, 130, 131, 132, 133, 134, 135, 136, 137, 138, 139, 140, 141
 142, 143, 144, 145, 146, 147, 148, 149, 150, 151, 152, 153, 154, 155, 156, 157
 158, 159, 160, 161, 162, 163, 164, 165, 166, 167, 168, 169, 170, 171, 172, 173
 174, 175, 176, 177, 178, 179, 180, 181, 182, 183, 184, 185, 186, 187, 188, 189
 190, 191, 192, 193, 194, 195, 196, 197, 198, 199, 200, 201, 202, 203, 204, 205
 206, 207, 208, 209, 210, 211, 212, 213, 214, 215, 216, 217, 218, 219, 220, 221
 222, 223, 224, 225, 226, 227, 228, 229, 230, 231, 232, 233, 234, 235, 236, 237
 238,
*Elset, elset=se_bottom
  334,  335,  336,  337,  338,  340,  341,  342,  343,  344,  346,  352,  353,  360,  382,  388
  389,  392,  393,  395,  398,  400,  401,  403,  405,  409,  410,  411,  413,  415,  417,  419
  421,  423,  424,  426,  446,  447,  448,  449,  451,  452,  453,  454,  457,  458,  459,  460
  461,  463,  464,  465,  466,  467,  468,  469,  470,  471,  472,  475,  476,  477,  479,  481
  482,  483,  486,  487,  488,  489,  490,  492,  493,  495,  496,  497,  498,  499,  500,  502
  504,  505,  508,  510,  511,  513,  515,  516,  517,  519,  521,  522,  523,  524,  525,  527
  529,  530,  532,  533,  552,  554,  555,  556,  557,  563,  565,  574,  577,  578,  579,  585
  588,  600,  601,  602,  604,  605,  606,  607,  608,  609,  613,  614,  615,  624,  625,  626
  627,  628,  629,  630,  631,  632,  633,  634,  635,  639,  660,  667,  671,  676,  680, 1042
*Nset, nset=se_top
  5,  6, 65, 66, 67, 68, 69, 70, 71, 72, 73
*Elset, elset=se_top
  28,  50,  58, 214, 264, 266, 269, 272, 274, 275
*Nset, nset=se_left
  1,  6,  7, 74, 75, 76, 77, 78, 79, 80, 81, 82, 83, 84, 85, 86
 87, 88, 89, 90, 91, 92, 93, 94, 95, 96, 97, 98
*Elset, elset=se_left
   2,  10,  55,  58, 238, 244, 251, 261, 322, 386, 387, 391, 428, 429, 430, 435
 436, 439, 441, 442, 443, 445, 446, 450, 543, 550, 553
*Nset, nset=se_right
   4,   5,  11,  54,  55,  56,  57,  58,  59,  60,  61,  62,  63,  64, 239, 240
 241, 242
*Elset, elset=se_right
  28,  31,  42,  91, 118, 129, 130, 199, 209, 243, 262, 282, 362, 533, 534, 681
 682,
*Elset, elset=se_bot_surf_S4
 335, 336, 341, 343, 344, 346, 352, 353, 389, 392, 393, 395, 447, 448, 449, 452
 469, 479, 481, 482, 489, 493, 495, 496, 497, 498, 499, 500, 502, 504, 505, 511
 513, 515, 516, 517, 519, 521, 522, 523, 524, 525, 527, 529, 530, 532, 533, 552
 554, 556, 578, 608
*Elset, elset=se_bot_surf_S2
  334,  337,  338,  340,  342,  360,  382,  388,  398,  400,  401,  403,  405,  409,  410,  411
  413,  415,  417,  419,  421,  423,  424,  426,  446,  451,  454,  457,  458,  459,  460,  461
  463,  464,  465,  466,  467,  468,  470,  471,  472,  475,  476,  477,  486,  487,  488,  490
  492,  508,  555,  557,  563,  565,  574,  577,  579,  585,  588,  600,  601,  602,  604,  605
  606,  607,  609,  613,  614,  615,  624,  625,  626,  627,  628,  629,  630,  631,  632,  633
  634,  635,  639,  660,  667,  671,  676,  680, 1042
*Elset, elset=se_bot_surf_S3
 453, 483, 510
*Surface, type=ELEMENT, name=se_bot_surf
se_bot_surf_S4, S4
se_bot_surf_S2, S2
se_bot_surf_S3, S3
*Elset, elset=se_top_surf_S4
 28, 58
*Elset, elset=se_top_surf_S3
  50, 214, 264, 269
*Elset, elset=se_top_surf_S1
 266, 272, 274, 275
*Surface, type=ELEMENT, name=se_top_surf
se_top_surf_S4, S4
se_top_surf_S3, S3
se_top_surf_S1, S1
** ----------------------------------------------------------------
** 
** PART INSTANCE: Part-2-1
** 
*Node
   1175,   2.59707856,           0.
   1176,   2.59707856,         -0.5
   1177,   5.51262283,         -0.5
   1178,   5.51262283,           0.
   1179,   12.0601234,           0.
   1180,   12.0601234,         -0.5
   1181,          15.,         -0.5
   1182,          15.,           0.
   1183,         1.25,           0.
   1184,         1.25,         -0.5
   1185,   8.42262268,           0.
   1186,   8.42262268,         -0.5
   1187,  0.756153882,  0.421794921
   1188,  0.493846089,   2.07820511
   1189,           0.,          2.5
   1190,           0.,         -0.5
   1191,           0.,         -10.
   1192,          15.,         -10.
   1193,   2.59707856,      -0.0625
   1194,   2.59707856,       -0.125
** ... 4955 like lines cut
*Element, type=CPE4H
1075, 1175, 1193, 1679, 1262
1076, 1193, 1194, 1680, 1679
1077, 1194, 1195, 1681, 1680
1078, 1195, 1196, 1682, 1681
1079, 1196, 1197, 1683, 1682
1080, 1197, 1198, 1684, 1683
1081, 1198, 1199, 1685, 1684
1082, 1199, 1176, 1200, 1685
1083, 1262, 1679, 1686, 1261
1084, 1679, 1680, 1687, 1686
1085, 1680, 1681, 1688, 1687
1086, 1681, 1682, 1689, 1688
1087, 1682, 1683, 1690, 1689
1088, 1683, 1684, 1691, 1690
1089, 1684, 1685, 1692, 1691
1090, 1685, 1200, 1201, 1692
1091, 1261, 1686, 1693, 1260
1092, 1686, 1687, 1694, 1693
1093, 1687, 1688, 1695, 1694
1094, 1688, 1689, 1696, 1695
** ... 4794 like lines cut
*Nset, nset=ip
 1175, 1176, 1177, 1178, 1179, 1180, 1181, 1182, 1183, 1184, 1185, 1186, 1187, 1188, 1189, 1190
 1193, 1194, 1195, 1196, 1197, 1198, 1199, 1200, 1201, 1202, 1203, 1204, 1205, 1206, 1207, 1208
 1209, 1210, 1211, 1212, 1213, 1214, 1215, 1216, 1217, 1218, 1219, 1220, 1221, 1222, 1223, 1224
 1225, 1226, 1227, 1228, 1229, 1230, 1231, 1232, 1233, 1234, 1235, 1236, 1237, 1238, 1239, 1240
 1241, 1242, 1243, 1244, 1245, 1246, 1247, 1248, 1249, 1250, 1251, 1252, 1253, 1254, 1255, 1256
 1257, 1258, 1259, 1260, 1261, 1262, 1263, 1264, 1265, 1266, 1267, 1268, 1269, 1270, 1271, 1272
 1273, 1274, 1275, 1276, 1277, 1278, 1279, 1280, 1281, 1282, 1283, 1284, 1285, 1286, 1287, 1288
 1289, 1290, 1291, 1292, 1293, 1294, 1295, 1296, 1297, 1298, 1299, 1300, 1301, 1302, 1303, 1304
 1305, 1306, 1307, 1308, 1309, 1310, 1311, 1312, 1313, 1314, 1315, 1316, 1317, 1318, 1319, 1320
 1321, 1322, 1323, 1324, 1325, 1326, 1327, 1328, 1329, 1330, 1331, 1332, 1333, 1334, 1335, 1336
 1337, 1338, 1339, 1340, 1341, 1342, 1343, 1344, 1345, 1346, 1347, 1348, 1349, 1350, 1351, 1352
 1353, 1354, 1355, 1356, 1357, 1358, 1359, 1360, 1361, 1362, 1363, 1364, 1365, 1366, 1367, 1368
 1369, 1370, 1371, 1372, 1373, 1374, 1375, 1376, 1377, 1378, 1379, 1380, 1381, 1382, 1383, 1384
 1385, 1386, 1387, 1388, 1389, 1390, 1391, 1392, 1393, 1394, 1395, 1396, 1397, 1398, 1399, 1400
 1401, 1402, 1403, 1404, 1405, 1406, 1407, 1408, 1409, 1410, 1411, 1412, 1413, 1414, 1415, 1416
 1417, 1418, 1419, 1420, 1421, 1422, 1423, 1424, 1425, 1426, 1427, 1428, 1429, 1430, 1431, 1432
 1433, 1434, 1435, 1436, 1437, 1438, 1439, 1440, 1441, 1442, 1443, 1444, 1445, 1446, 1447, 1448
 1449, 1450, 1451, 1452, 1453, 1454, 1455, 1456, 1457, 1458, 1459, 1460, 1461, 1462, 1463, 1464
 1465, 1466, 1467, 1468, 1469, 1470, 1471, 1472, 1473, 1474, 1475, 1476, 1477, 1478, 1479, 1480
 1481, 1482, 1483, 1484, 1485, 1486, 1487, 1488, 1489, 1490, 1491, 1492, 1493, 1494, 1495, 1496
** ... 118 like lines cut
*Elset, elset=ip, generate
 1075,  3068,     1
*Nset, nset=Li_left
1189,1190,1191,1556,1557,1558,1559,1560,1561,1562,1563,1564,1565,1566,1567,1568
1569,1570,1571,1572,1573,1574,1575,1576,1577,1578,1579,1580,1581,1582,1583,1584
1585,1586,1587,1588,1589,1590,1591,1592,1593,1594,1595,1596,1597,1598,1599,1600
1601,1602,1603,1604,1605,1606,1607,1608,1609,1610,1611,1612,1613,1614,1628,1629
1630,1631,1632,1633,1634,1635,1636,1637,1638,1639,1640,1641,1642,1643,1644,1645
1646,1647,1648,1649,1650,1651,1652,1653,1654,1655,1656,1657
*Elset, elset=Li_left
 2173, 2175, 2210, 2212, 2224, 2231, 2237, 2246, 2253, 2259, 2265, 2271, 2277, 2284, 2291, 2299
 2306, 2315, 2323, 2329, 2333, 2337, 2341, 2449, 2450, 2451, 2453, 2455, 2457, 2459, 2460, 2461
 2463, 2465, 2467, 2469, 2470, 2471, 2472, 2473, 2502, 2504, 2506, 2508, 2510, 2512, 2514, 2516
 2517, 2519, 2521, 2523, 2525, 2528, 2530, 2532, 2534, 2536, 2539, 2542, 3133, 3135, 3139, 3146
 3153, 3160, 3274, 3275, 3277, 3278, 3279, 3280, 3281, 3282, 3283, 3284, 3285, 3286, 3287, 3296
 3298, 3306, 3307, 3310, 3451, 3461, 3462, 3603, 3620, 3621, 5781
*Nset, nset=Li_right
1181,1182,1192,1298,1299,1300,1301,1302,1303,1304,1672,1673,1674,1675,1676,1677
1678,
*Elset, elset=Li_right
 1531, 1532, 1533, 1534, 1535, 1536, 1537, 1538, 3072, 3075, 3137, 3302, 5337, 5811, 5814, 5815
*Nset, nset=ip_top
1175,1178,1179,1182,1183,1185,1187,1188,1189,1235,1236,1237,1238,1239,1240,1241
1242,1243,1244,1245,1246,1247,1248,1249,1250,1251,1252,1253,1254,1255,1256,1257
1258,1259,1260,1261,1262,1305,1306,1307,1308,1309,1310,1311,1312,1313,1314,1315
1316,1317,1318,1319,1320,1321,1322,1323,1324,1325,1326,1327,1328,1329,1330,1331
1332,1352,1353,1354,1355,1356,1357,1358,1359,1360,1361,1362,1363,1406,1407,1408
1409,1410,1411,1412,1413,1414,1415,1416,1417,1418,1419,1420,1421,1422,1423,1424
1425,1426,1427,1428,1429,1430,1431,1432,1433,1434,1435,1436,1437,1438,1439,1440
1441,1442,1443,1444,1445,1446,1447,1448,1449,1450,1451,1452,1453,1454,1455,1456
1457,1458,1459,1460,1461,1462,1463,1464,1465,1466,1467,1468,1497,1498,1499,1500
1501,1502,1503,1504,1505,1506,1507,1508,1509,1510,1511,1512,1513,1514,1515,1516
1517,1518,1519,1520,1521,1522,1523,1524,1525,1526,1527,1528,1529,1530,1531,1532
1533,1534,1535,1536,1537,1538,1539,1540,1541,1542,1543,1544,1545,1546,1547,1548
1549,1550,1551,1552,1553,1554,1555
*Elset, elset=ip_top
 1075, 1083, 1091, 1099, 1107, 1115, 1123, 1131, 1139, 1147, 1155, 1163, 1171, 1179, 1187, 1195
 1203, 1211, 1219, 1227, 1235, 1243, 1251, 1259, 1267, 1275, 1283, 1291, 1299, 1307, 1315, 1323
 1331, 1339, 1347, 1355, 1363, 1371, 1379, 1387, 1395, 1403, 1411, 1419, 1427, 1435, 1443, 1451
 1459, 1467, 1475, 1483, 1491, 1499, 1507, 1515, 1523, 1531, 1539, 1547, 1555, 1563, 1571, 1579
 1587, 1595, 1603, 1611, 1619, 1627, 1635, 1643, 1651, 1659, 1667, 1675, 1683, 1691, 1699, 1707
 1715, 1723, 1731, 1739, 1747, 1755, 1763, 1771, 1779, 1787, 1795, 1803, 1811, 1819, 1827, 1835
 1843, 1851, 1859, 1867, 1875, 1883, 1891, 1899, 1907, 1915, 1923, 1938, 1946, 1954, 1962, 1970
 1978, 1986, 1994, 2002, 2010, 2018, 2026, 2034, 2042, 2050, 2058, 2066, 2074, 2082, 2090, 2098
 2106, 2114, 2122, 2130, 2138, 2146, 2154, 2162, 2184, 2185, 2192, 2193, 2197, 2199, 2200, 2201
 2202, 2205, 2216, 2217, 2219, 2226, 2233, 2238, 2239, 2240, 2241, 2243, 2244, 2251, 2257, 2275
 2289, 2304, 2374, 2415, 2427, 2428, 2429, 2430, 2431, 2432, 2434, 2435, 2436, 2437, 2438, 2439
 2440, 2441, 2442, 2443, 2444, 2447, 2450, 2477, 2478, 2481, 2482, 2491, 2496, 2543, 2544, 2545
 2548, 2550, 2552, 2553, 2557, 2564
*Nset, nset=sub
 1176, 1177, 1180, 1181, 1184, 1186, 1190, 1191, 1192, 1200, 1201, 1202, 1203, 1204, 1205, 1206
 1207, 1208, 1209, 1210, 1211, 1212, 1213, 1214, 1215, 1216, 1217, 1218, 1219, 1220, 1221, 1222
 1223, 1224, 1225, 1226, 1227, 1270, 1271, 1272, 1273, 1274, 1275, 1276, 1277, 1278, 1279, 1280
 1281, 1282, 1283, 1284, 1285, 1286, 1287, 1288, 1289, 1290, 1291, 1292, 1293, 1294, 1295, 1296
 1297, 1340, 1341, 1342, 1343, 1344, 1345, 1346, 1347, 1348, 1349, 1350, 1351, 1371, 1372, 1373
 1374, 1375, 1376, 1377, 1378, 1379, 1380, 1381, 1382, 1383, 1384, 1385, 1386, 1387, 1388, 1389
 1390, 1391, 1392, 1393, 1394, 1395, 1396, 1397, 1398, 1399, 1400, 1401, 1402, 1403, 1404, 1405
 1469, 1470, 1471, 1472, 1473, 1474, 1475, 1476, 1477, 1478, 1479, 1480, 1481, 1482, 1483, 1484
 1485, 1486, 1487, 1488, 1489, 1490, 1491, 1492, 1493, 1494, 1495, 1496, 1615, 1616, 1617, 1618
 1619, 1620, 1621, 1622, 1623, 1624, 1625, 1626, 1627, 1628, 1629, 1630, 1631, 1632, 1633, 1634
 1635, 1636, 1637, 1638, 1639, 1640, 1641, 1642, 1643, 1644, 1645, 1646, 1647, 1648, 1649, 1650
 1651, 1652, 1653, 1654, 1655, 1656, 1657, 1658, 1659, 1660, 1661, 1662, 1663, 1664, 1665, 1666
 1667, 1668, 1669, 1670, 1671, 1672, 1673, 1674, 1675, 1676, 1677, 1678, 3431, 3432, 3433, 3434
 3435, 3436, 3437, 3438, 3439, 3440, 3441, 3442, 3443, 3444, 3445, 3446, 3447, 3448, 3449, 3450
 3451, 3452, 3453, 3454, 3455, 3456, 3457, 3458, 3459, 3460, 3461, 3462, 3463, 3464, 3465, 3466
 3467, 3468, 3469, 3470, 3471, 3472, 3473, 3474, 3475, 3476, 3477, 3478, 3479, 3480, 3481, 3482
 3483, 3484, 3485, 3486, 3487, 3488, 3489, 3490, 3491, 3492, 3493, 3494, 3495, 3496, 3497, 3498
 3499, 3500, 3501, 3502, 3503, 3504, 3505, 3506, 3507, 3508, 3509, 3510, 3511, 3512, 3513, 3514
 3515, 3516, 3517, 3518, 3519, 3520, 3521, 3522, 3523, 3524, 3525, 3526, 3527, 3528, 3529, 3530
 3531, 3532, 3533, 3534, 3535, 3536, 3537, 3538, 3539, 3540, 3541, 3542, 3543, 3544, 3545, 3546
** ... 163 like lines cut
*Elset, elset=sub, generate
 3069,  5888,     1
*Nset, nset=sub_bottom
1191,1192,1658,1659,1660,1661,1662,1663,1664,1665,1666,1667,1668,1669,1670,1671
*Elset, elset=sub_bottom
 3074, 3075, 3081, 3088, 3095, 3102, 3110, 3118, 3126, 3275, 3299, 3300, 5792, 5794, 5797
*Elset, elset=sub_bot_surf_S3
 3074, 3081, 3088, 3095, 3102, 3118, 3126, 3299
*Elset, elset=sub_bot_surf_S1
 3075, 3110, 3275, 3300, 5792, 5794, 5797
*Surface, type=ELEMENT, name=sub_bot_surf
sub_bot_surf_S3, S3
sub_bot_surf_S1, S1
*Elset, elset=ip_top_surf_S4
 1075, 1083, 1091, 1099, 1107, 1115, 1123, 1131, 1139, 1147, 1155, 1163, 1171, 1179, 1187, 1195
 1203, 1211, 1219, 1227, 1235, 1243, 1251, 1259, 1267, 1275, 1283, 1291, 1299, 1307, 1315, 1323
 1331, 1339, 1347, 1355, 1363, 1371, 1379, 1387, 1395, 1403, 1411, 1419, 1427, 1435, 1443, 1451
 1459, 1467, 1475, 1483, 1491, 1499, 1507, 1515, 1523, 1531, 1539, 1547, 1555, 1563, 1571, 1579
 1587, 1595, 1603, 1611, 1619, 1627, 1635, 1643, 1651, 1659, 1667, 1675, 1683, 1691, 1699, 1707
 1715, 1723, 1731, 1739, 1747, 1755, 1763, 1771, 1779, 1787, 1795, 1803, 1811, 1819, 1827, 1835
 1843, 1851, 1859, 1867, 1875, 1883, 1891, 1899, 1907, 1915, 1923, 2184, 2197, 2202, 2216, 2219
 2233, 2238, 2239, 2240, 2304, 2415, 2429, 2431, 2432, 2435, 2436, 2437, 2439, 2543
*Elset, elset=ip_top_surf_S2
 1938, 1946, 1954, 1962, 1970, 1978, 1986, 1994, 2002, 2010, 2018, 2026, 2034, 2042, 2050, 2058
 2066, 2074, 2082, 2090, 2098, 2106, 2114, 2122, 2130, 2138, 2146, 2154, 2162, 2185, 2192, 2193
 2205, 2226, 2257, 2430, 2434, 2438, 2440, 2477, 2478, 2481, 2482, 2548, 2550
*Elset, elset=ip_top_surf_S1
 2217, 2289, 2374, 2428, 2441, 2442, 2443, 2444, 2450, 2496, 2544, 2545
*Elset, elset=ip_top_surf_S3
 2199, 2200, 2201, 2241, 2243, 2244, 2251, 2275, 2427, 2447, 2491, 2552, 2553, 2557, 2564
*Surface, type=ELEMENT, name=ip_top_surf
ip_top_surf_S4, S4
ip_top_surf_S2, S2
ip_top_surf_S1, S1
ip_top_surf_S3, S3
************************************************************************
**			MATERIAL DEFINITION
************************************************************************
**
*Solid section, elset=ip, material=ip
** Material properties for the real mesh for Li
**
*Material, name=ip
*User material, Constants=16
**Eyoung poisson   Apre    Qact  To    mRate    Y0       Ho    
  7.81e3,   0.38,  4.254E4, 37., 298., 0.15,   0.95E0,   10.E0 
** Ysat   ahard nhard  
  2.0E0,   2.0, 0.05, <Omega>, <alpha1>,<alpha2>,<alpha3>,<cDot>
**
*Depvar
24
10,nuP
12,Y
14,ebarp
15,conc
**
*Solid section, elset=sub, material=Li_sub
*********************************************** 
**
*Material, name=Li_sub
*User material, Constants=16
**Eyoung poisson   Apre    Qact  To    mRate    Y0       Ho    
  7.81e3,   0.38,  4.254E4, 37., 298., 0.15,   0.95E0,   10.E0 
** Ysat   ahard nhard  
  2.0E0,   2.0, 0.05, <Omega>, <alpha1>,<alpha2>,<alpha3>,0.
**
*Depvar
24
10,nuP
12,Y
14,ebarp
15,conc
**
**
*Solid section, elset=se, material= Ceramic
*Material, name=Ceramic
*Elastic
170.e3, 0.25
************************************************************************
**			INTERACTION
************************************************************************
** INTERACTION PROPERTIES
** 
*Surface Interaction, name=Cohesive
***Cohesive Behavior, Eligibility = SPECIFIED CONTACTS
*Cohesive Behavior
7.81e5,7.81e5, 7.81e5
*Damage Initiation, criterion=QUADS
10.e0,10.e0, 10.e0
*Damage Evolution, type=ENERGY
0.67,0.67,0.67
*Damage Stabilization
1.E-5 
**
*TIE,adjust=yes, name=tiedsurf
ip_top_surf,se_bot_surf
************************************************************************
**			AMPLITUDE
************************************************************************
*Amplitude, name=amp_new
0.,0.,1.,1.,500.,1.
************************************************************************
****			INITIAL CONDITIONS
************************************************************************
************************************************************************
**			SIMULATION STEP
************************************************************************
*Step, Name=Swell, nlgeom=yes, inc=500000
*Static
0.001,500.,1.e-6,40.
*CONTROLS, PARAMETERS=LINE SEARCH
10,1.0,0.0001,0.25,0.10
*CONTROLS, PARAMETERS=TIME INCREMENTATION
,,,,,,,20,,,,,,
*** *CONTROLS, PARAMETERS=FIELD, FIELD=DISPLACEMENT
*** ,1.0,,,,,1.0,
**
**	DISPLACEMENT B.C.
**
**
*Boundary, op=new
se_left,1,1
Li_left,1,1
se_right,1,1
Li_right,1,1
sub_bottom,2,2
**
*Dsload, amplitude=amp_new
se_top_surf,P,0.1
**
**************************************************
*Output, field, frequency=20
*node output
u
*element output
S,E,SDV,SDEG
*contact output, nset=se_bottom
CSDMG
*End Step
************************************************************************