**************************************************************************
**INPUT DECK FOR LITHIUM DEPOSITION IN A CAVITY
**
***************************************************************************
*HEADING
CAVITY DEPOSITION
************************************************************************-
**
**	UNITS:	Length - microns = 1e-6 meters
**		Mass - kg
**		Time - sec
**		Angle - radians
**		Temperature - Kelvin 
**		Amount of substance - 1e-12 mol
****************
**		Force - 1.e-6 N
**		Stress - 1.e6 Pa = 1 MPa 
**		Energy - 1e-12 J
**		Chemical Potential - J/mol
**		Diffusivity - 1e-12 m^2/s
**		Concentration - 1e6 mol/m^3
**              flux          - mol/(m^2 s)
**
************************************************************************
**			PARAMETERS for Lithium
************************************************************************
*Parameter
*******cDot = 1.e-3 ----------------OLD VALUES
*******Omega = 13.e0 ---------------OLD VALUES
**
**
Omega =13.e-6
**
**
i=5
**Current in mA/cm2
Farad=96485
V_by_A = 0.538
**18.13(Area of IP from CAE)/33.69(length of top_surf)
**thickness in microns for interphase layer 
cDot = 1.e7*i/Farad/V_by_A
**cDot = 0.
**
cMax = 5.e5
tload=cMax/cDot
**
cLim = 3.e2
tMax = cLim/cDot
**For aniso
alpha1 = 0.e0
alpha2 = 1.e0
alpha3 = 0.e0
**
********************************************************************
********************************************************************
*Node, nset=se
      1,           0.,          3.5
      2,    1.4815383,   2.23461533
      3,   1.67705095,           1.
      4,          15.,           1.
      5,           0.,          2.5
      6,  0.493846089,   2.07820511
      7,  0.756153882,  0.421794921
      8,         1.25,           0.
      9,          15.,           0.
     10, 0.0599840023,   3.49880028
     11,  0.127750993,   3.49454999
     12,  0.204124227,   3.48604631
     13,  0.289903998,   3.47171855
     14,  0.385795802,   3.44953847
     15,   0.49229759,   3.41691327
     16,  0.609527349,   3.37057519
     17,  0.736968577,   3.30647516
     18,  0.873102665,   3.21970963
     19,   1.01489651,   3.10452938
     20,   1.15711272,   2.95451045
** ... 1627 like lines cut
**
17558,   -1.4815383,   2.23461533
  17559,           0.,          3.5
  17560,           0.,          10.
  17561,         -15.,          10.
  17562,         -15.,           1.
  17563,  -1.67705095,           1.
  17564,         -15.,           0.
  17565,        -1.25,           0.
  17566, -0.756153882,  0.421794921
  17567, -0.493846089,   2.07820511
  17568,           0.,          2.5
  17569,  -1.40542805,   2.52418709
  17570,  -1.29143226,   2.76302218
  17571,   -1.1571126,   2.95451045
  17572,  -1.01489651,   3.10452938
  17573, -0.873102665,   3.21970963
  17574, -0.736968577,   3.30647516
  17575, -0.609527349,   3.37057519
  17576,  -0.49229759,   3.41691327
  17577, -0.385795832,   3.44953847
** ... 1503 like lines cut
*Element, type=CPE4, elset= se_right
  1, 658, 609, 615, 817
  2, 271,  85,  86, 272
  3,   6, 285, 246,  79
  4,  81, 410, 401,  80
  5, 269,  94,  95, 265
  6, 265,  95,  96, 264
  7, 265, 264, 402, 421
  8, 251, 107, 108, 253
  9, 111, 767, 252, 110
 10, 769, 115, 116, 261
 11, 120, 306, 311, 119
 12, 125, 339, 295, 124
 13, 485, 459, 743, 684
 14, 136, 297, 303, 135
 15, 794, 464, 806, 463
 16, 488, 344, 312, 476
 17, 473, 327, 345, 489
 18, 491, 348, 349, 492
 19, 475, 329, 350, 493
 20, 161, 353, 330, 160
** ... 1505 like lines cut
*Element, type=CPE4, elset= se_left
17121, 17569, 17570, 17858, 17859
17122, 17570, 17571, 17857, 17858
17123, 18010, 17967, 17970, 18027
17124, 17880, 17868, 17660, 17661
17125, 17969, 17887, 17907, 18400
17126, 17962, 17890, 17910, 17965
17127, 17847, 17904, 17892, 17848
17128, 17559, 17582, 17882, 17581
17129, 17883, 17882, 17852, 17943
17130, 17895, 17850, 17894, 17975
17131, 17849, 17903, 17894, 17850
17132, 17891, 17846, 17845, 17905
17133, 17890, 17844, 17843, 17910
17134, 17888, 17840, 17839, 17909
17135, 17978, 17836, 17886, 17945
17136, 17571, 17572, 17856, 17857
17137, 17560, 17627, 17853, 17626
17138, 17916, 17853, 17627, 17628
17139, 17625, 17893, 18378, 17624
17140, 18378, 17908, 17623, 17624
** ... 1385 like lines cut
*Nset, nset=se_right_bottom
   5,   6,   7,   8,   9,  69,  70,  71,  72,  73,  74,  75,  76,  77,  78,  79
  80,  81,  82,  83,  84,  85,  86,  87,  88,  89,  90,  91,  92,  93,  94,  95
  96,  97,  98,  99, 100, 101, 102, 103, 104, 105, 106, 107, 108, 109, 110, 111
 112, 113, 114, 115, 116, 117, 118, 119, 120, 121, 122, 123, 124, 125, 126, 127
 128, 129, 130, 131, 132, 133, 134, 135, 136, 137, 138, 139, 140, 141, 142, 143
 144, 145, 146, 147, 148, 149, 150, 151, 152, 153, 154, 155, 156, 157, 158, 159
 160, 161, 162, 163, 164, 165, 166, 167, 168, 169, 170, 171, 172, 173, 174, 175
 176, 177, 178, 179, 180, 181, 182, 183, 184, 185, 186, 187, 188, 189, 190, 191
 192, 193, 194, 195, 196, 197, 198, 199, 200, 201, 202, 203, 204, 205, 206, 207
 208,
*Elset, elset=se_right_bottom
  2,   3,   4,   5,   6,   8,   9,  10,  11,  12,  14,  20,  21,  28,  50,  56
  57,  60,  61,  63,  66,  68,  69,  71,  73,  77,  78,  79,  81,  83,  85,  87
  89,  91,  92,  94, 114, 115, 116, 117, 119, 120, 121, 122, 125, 126, 127, 128
 129, 131, 132, 133, 134, 135, 136, 137, 138, 139, 140, 143, 144, 145, 147, 149
 150, 151, 154, 155, 156, 157, 158, 160, 161, 163, 164, 165, 166, 167, 168, 170
 172, 173, 176, 178, 179, 181, 183, 184, 185, 187, 189, 190, 191, 192, 193, 195
 197, 198, 200, 201, 220, 222, 223, 224, 225, 231, 233, 242, 245, 246, 247, 253
 256, 268, 269, 270, 272, 273, 274, 275, 276, 277, 281, 282, 283, 292, 293, 294
 295, 296, 297, 298, 299, 300, 301, 302, 303, 307, 328, 335, 339, 344, 348, 710
*Nset, nset=se_right_top
  879, 880, 892, 893, 894, 895, 896, 897, 898, 899, 900, 901, 902, 903, 904, 905
 906, 907, 908
*Elset, elset=se_right_top
  770,  789,  806,  933, 1125, 1156, 1160, 1197, 1199, 1424, 1433, 1450, 1454, 1455, 1456, 1469
 1471, 1475
*Nset, nset=se_right_left
  1,   5,  52,  53,  54,  55,  56,  57,  58,  59,  60,  61,  62,  63,  64,  65
  66,  67,  68, 850, 851, 852, 853, 854, 855, 856, 857, 858, 859, 860, 861, 862
 863, 864, 865, 866, 867, 868, 869, 870, 871, 872, 873, 874, 875, 876, 877, 878
 880, 909, 910, 911, 912, 913, 914, 915, 916, 917, 918, 919, 920, 921, 922, 923
*Elset, elset=se_right_left
   54,  55,  59,  96,  97,  98, 103, 104, 107, 109, 110, 111, 113, 114, 118, 211
 218, 221, 744, 749, 750, 751, 753, 798, 799, 800, 801, 803, 805, 806, 807, 808
 810, 812, 813, 815, 816, 817, 818, 819, 821, 822, 823, 824, 828, 829, 831, 833
 835, 837, 838, 842, 847, 852, 854, 896, 898, 900, 910, 919, 923, 963, 974
*Nset, nset=se_right_right
   4,   9, 209, 210, 211, 212, 879, 881, 882, 883, 884, 885, 886, 887, 888, 889
 890, 891
*Elset, elset=se_right_right
  30,  201,  202,  349,  350,  770,  783,  791,  882, 1093, 1195, 1244, 1287, 1323, 1353, 1459
 1477,
*Elset, elset=_se_right_bot_surf_S4
3,   4,   9,  11,  12,  14,  20,  21,  57,  60,  61,  63, 115, 116, 117, 120
 137, 147, 149, 150, 157, 161, 163, 164, 165, 166, 167, 168, 170, 172, 173, 179
 181, 183, 184, 185, 187, 189, 190, 191, 192, 193, 195, 197, 198, 200, 201, 220
 222, 224, 246, 276
*Elset, elset=_se_right_bot_surf_S2
  2,   5,   6,   8,  10,  28,  50,  56,  66,  68,  69,  71,  73,  77,  78,  79
  81,  83,  85,  87,  89,  91,  92,  94, 114, 119, 122, 125, 126, 127, 128, 129
 131, 132, 133, 134, 135, 136, 138, 139, 140, 143, 144, 145, 154, 155, 156, 158
 160, 176, 223, 225, 231, 233, 242, 245, 247, 253, 256, 268, 269, 270, 272, 273
 274, 275, 277, 281, 282, 283, 292, 293, 294, 295, 296, 297, 298, 299, 300, 301
 302, 303, 307, 328, 335, 339, 344, 348, 710
*Elset, elset=_se_right_bot_surf_S3
121, 151, 178
*Surface, type=ELEMENT, name=se_right_bot_surf
_se_right_bot_surf_S4, S4
_se_right_bot_surf_S2, S2
_se_right_bot_surf_S3, S3
*Elset, elset=se_right_left_surf_S2
  54,  59,  96,  97, 103, 110, 218, 221, 744, 750, 751, 753, 798, 799, 800, 803
 808, 810, 812, 813, 815, 816, 817, 818, 819, 821, 822, 823, 824, 842, 847, 852
 854, 896, 898, 900, 910, 963
*Elset, elset=se_right_left_surf_S4
  55,  98, 104, 107, 109, 111, 118, 211, 749, 805, 807, 828, 829, 831, 833, 835
 837, 838, 919, 923, 974
*Elset, elset=se_right_left_surf_S3
 113, 801
*Elset, elset=se_right_left_surf_S1
 114, 806
*Surface, type=ELEMENT, name=se_right_left_surf
se_right_left_surf_S2, S2
se_right_left_surf_S4, S4
se_right_left_surf_S3, S3
se_right_left_surf_S1, S1
*Elset, elset=se_right_top_surf_S2
 1160,1197,1424
*Elset, elset=se_right_top_surf_S4
 770,806,1156,1199,1450,1454
*Elset, elset=se_right_top_surf_S3
 789,1455,1456,1471
*Elset, elset=se_right_top_surf_S1
 933,1125,1433,1469,1475
*Surface, type=ELEMENT, name=se_right_top_surf
se_right_top_surf_S2, S2
se_right_top_surf_S4, S4
se_right_top_surf_S3, S3
se_right_top_surf_S1, S1
********************
*Nset, nset=se_left_bottom
   17564,17565,17566,17567,17568,17680,17681,17682,17683,17684,17685,17686,17687,17688,17689,17690
17691,17692,17693,17694,17695,17696,17697,17698,17699,17700,17701,17702,17703,17704,17705,17706
17707,17708,17709,17710,17711,17712,17713,17714,17715,17716,17717,17718,17719,17720,17721,17722
17723,17724,17725,17726,17727,17728,17729,17730,17731,17732,17733,17734,17735,17736,17737,17738
17739,17740,17741,17742,17743,17744,17745,17746,17747,17748,17749,17750,17751,17752,17753,17754
17755,17756,17757,17758,17759,17760,17761,17762,17763,17764,17765,17766,17767,17768,17769,17770
17771,17772,17773,17774,17775,17776,17777,17778,17779,17780,17781,17782,17783,17784,17785,17786
17787,17788,17789,17790,17791,17792,17793,17794,17795,17796,17797,17798,17799,17800,17801,17802
17803,17804,17805,17806,17807,17808,17809,17810,17811,17812,17813,17814,17815,17816,17817,17818
17819,
*Nset, nset=se_left_top
  17560,17561,17627,17628,17629,17630,17631,17632,17633,17634,17635,17636,17637,17638,17639,17640
17641,17642
*Nset, nset=se_left_right
  17559,17560,17568,17582,17583,17584,17585,17586,17587,17588,17589,17590,17591,17592,17593,17594
17595,17596,17597,17598,17599,17600,17601,17602,17603,17604,17605,17606,17607,17608,17609,17610
17611,17612,17613,17614,17615,17616,17617,17618,17619,17620,17621,17622,17623,17624,17625,17626
17820,17821,17822,17823,17824,17825,17826,17827,17828,17829,17830,17831,17832,17833,17834,17835
*Nset, nset=se_left_left
   17561,17562,17564,17643,17644,17645,17646,17647,17677,17678,17679
*Elset, elset=_se_left_bot_surf_S1
17814,17820,17826,17830,17834,17842,17846,17848,17851,17855,17859,17863,17867,17870,17874,17878
17881,17884,17896,17897,17912,17913,17916,17927,17928,17929,17930,17964,17976,17977,17978,17979
17982,17983,17984,17986,17987,17989,17990,17991,17992,17993,17995,17996,17998,17999,18024,18025
18028,18029,18034,18047,18049,18050,18055,18056,18057,18060,18065,18066,18073,18074,18106,18114
18119,18125,18129,18135
*Elset, elset=_se_left_bot_surf_S3
17807,17813,17815,17838,17915,17918,17919,17921,17922,17923,17924,17925,17926,17931,17932,17933
17935,17936,17937,17938,17939,17941,17942,17943,17945,17946,17948,17949,17950,17951,17952,17953
17954,17955,17957,17958,17959,17960,17961,17962,17963,17966,17967,17968,17969,17970,17972,17973
17974,17975,17980,17981,17997,18000,18003,18033,18035,18042,18072,18082,18085,18087,18104,18110
18112,18116,18122,18132,18138,18492,18493,18494
*Elset, elset=_se_left_bot_surf_S2
17914,17994
*Elset, elset=_se_left_bot_surf_S4
17988,18020
*Surface, type=ELEMENT, name=se_left_bot_surf
_se_left_bot_surf_S1, S1
_se_left_bot_surf_S3, S3
_se_left_bot_surf_S2, S2
_se_left_bot_surf_S4, S4
*Elset, elset=se_left_right_surf_S3
   17140,17142,17150,17153,17156,17159,17161,17164,17169,17170,17174,17234,17265,17330,17899,18005
18006,18008,18012
*Elset, elset=se_left_right_surf_S1
  17128,17141,17143,17144,17145,17146,17147,17148,17151,17152,17154,17157,17158,17160,17162,17163
17165,17166,17167,17168,17171,17172,17173,17219,17226,17233,17281,17338,17340,17342,17806,17902
18002,18004,18007,18009,18010,18011,18016,18017,18019
*Elset, elset=se_left_right_surf_S4
 17137,17139,18003
*Surface, type=ELEMENT, name=se_left_right_surf
se_left_right_surf_S3, S3
se_left_right_surf_S1, S1
se_left_right_surf_S4, S4
*Elset, elset=se_left_top_surf_S3
 17138,17529,17702,17741,17735,17739
*Elset, elset=se_left_top_surf_S1
17137,17299,17385,17341,17451,17495,17717,17748,17760,17763,17175
*Surface, type=ELEMENT, name=se_left_top_surf
se_left_top_surf_S3, S3
se_left_top_surf_S1, S1
** ----------------------------------------------------------------
** 
*Surface, type=ELEMENT, name=se_bot_surf
_se_left_bot_surf_S1, S1
_se_left_bot_surf_S4, S4
_se_left_bot_surf_S2, S2
_se_left_bot_surf_S3, S3
_se_right_bot_surf_S4, S4
_se_right_bot_surf_S2, S2
_se_right_bot_surf_S3, S3
*********************************************************************************************************
*********************************************************************************************************
*Node, nset=Li
1648,   2.59707856,           0.
   1649,   2.59707856,         -0.5
   1650,   5.51262283,         -0.5
   1651,   5.51262283,           0.
   1652,  -2.59707856,         -0.5
   1653,  -2.59707856,           0.
   1654,  -5.51262283,           0.
   1655,  -5.51262283,         -0.5
   1656,         1.25,           0.
   1657,         1.25,         -0.5
   1658,        -1.25,         -0.5
   1659,        -1.25,           0.
   1660,   12.0601234,           0.
   1661,   12.0601234,         -0.5
   1662,          15.,         -0.5
   1663,          15.,           0.
   1664,   8.42262268,           0.
   1665,   8.42262268,         -0.5
   1666,  -12.0601234,         -0.5
   1667,  -12.0601234,           0.
** ... 15890 like lines cut
*Element, type=CPE4H, elset=Li
1526, 1648, 1681, 2799, 1740
1527, 1681, 1682, 2800, 2799
1528, 1682, 1683, 2801, 2800
1529, 1683, 1684, 2802, 2801
1530, 1684, 1685, 2803, 2802
1531, 1685, 1686, 2804, 2803
1532, 1686, 1687, 2805, 2804
1533, 1687, 1688, 2806, 2805
1534, 1688, 1689, 2807, 2806
1535, 1689, 1690, 2808, 2807
1536, 1690, 1691, 2809, 2808
1537, 1691, 1692, 2810, 2809
1538, 1692, 1649, 1693, 2810
1539, 1740, 2799, 2811, 1739
1540, 2799, 2800, 2812, 2811
1541, 2800, 2801, 2813, 2812
1542, 2801, 2802, 2814, 2813
1543, 2802, 2803, 2815, 2814
1544, 2803, 2804, 2816, 2815
1545, 2804, 2805, 2817, 2816
** ... 15575 like lines cut
*Nset, nset=Li_left
1668,1669,1674,2098,2099,2100,2101,2102,2103,2104,2105,2106,2107,2108,2109,2110
2287,2288,2289,2290,2291,2292,2293,2294,2295,2296,2297,2298,2299,2300,2301,2302
*Elset, elset=Li_left
 3713, 3714, 3715, 3716, 3717, 3718, 3719, 3720, 3721, 3722, 3723, 3724, 3725, 3726, 4338, 4385
 4386, 4389, 4422, 4426, 4558, 4561, 4562, 4564, 4566, 4567, 4627, 4628, 4629, 4867, 6729
*Nset, nset=Li_right
 1662, 1663, 1680, 1941, 1942, 1943, 1944, 1945, 1946, 1947, 1948, 1949, 1950, 1951, 1952, 2783
 2784, 2785, 2786, 2787, 2788, 2789, 2790, 2791, 2792, 2793, 2794, 2795, 2796, 2797, 2798
*Elset, elset=Li_right
  2875,  2876,  2877,  2878,  2879,  2880,  2881,  2882,  2883,  2884,  2885,  2886,  2887, 15071, 15072, 15122
 15127, 15128, 15163, 15165, 15193, 15194, 15197, 15198, 15199, 15200, 15204, 15421, 15833, 16730
*Nset, nset=sub
  1649,  1650,  1652,  1655,  1657,  1658,  1661,  1662,  1665,  1666,  1669,  1671,  1672,  1673,  1674,  1680
  1693,  1694,  1695,  1696,  1697,  1698,  1699,  1700,  1701,  1702,  1703,  1704,  1705,  1706,  1707,  1708
  1709,  1710,  1785,  1786,  1787,  1788,  1789,  1790,  1791,  1792,  1793,  1794,  1795,  1796,  1797,  1798
  1799,  1800,  1801,  1802,  1815,  1816,  1817,  1818,  1819,  1820,  1821,  1822,  1823,  1824,  1825,  1826
  1881,  1882,  1883,  1884,  1885,  1886,  1887,  1888,  1889,  1890,  1891,  1892,  1893,  1894,  1895,  1896
  1897,  1898,  1899,  1900,  1901,  1902,  1903,  1904,  1905,  1906,  1907,  1908,  1909,  1922,  1923,  1924
  1925,  1926,  1927,  1928,  1929,  1930,  1931,  1932,  1933,  1934,  1935,  1936,  1937,  1938,  1939,  1940
  2007,  2008,  2009,  2010,  2011,  2012,  2013,  2014,  2015,  2016,  2017,  2018,  2019,  2020,  2021,  2022
  2023,  2024,  2025,  2026,  2027,  2028,  2029,  2030,  2031,  2032,  2033,  2034,  2035,  2036,  2037,  2038
  2039,  2040,  2041,  2042,  2043,  2044,  2045,  2046,  2047,  2111,  2112,  2113,  2114,  2115,  2116,  2117
  2118,  2119,  2120,  2121,  2122,  2123,  2124,  2125,  2126,  2127,  2128,  2129,  2143,  2144,  2145,  2146
  2147,  2148,  2149,  2150,  2151,  2152,  2153,  2154,  2155,  2156,  2157,  2158,  2159,  2160,  2202,  2203
  2204,  2205,  2206,  2207,  2208,  2209,  2210,  2211,  2212,  2213,  2214,  2215,  2216,  2217,  2218,  2219
  2220,  2221,  2222,  2223,  2224,  2225,  2226,  2227,  2228,  2229,  2230,  2231,  2232,  2233,  2234,  2235
  2236,  2237,  2238,  2239,  2240,  2241,  2242,  2243,  2244,  2245,  2246,  2247,  2248,  2249,  2250,  2251
  2252,  2253,  2254,  2255,  2256,  2257,  2258,  2259,  2260,  2261,  2262,  2263,  2264,  2265,  2266,  2267
  2268,  2269,  2270,  2271,  2272,  2273,  2274,  2275,  2276,  2277,  2278,  2279,  2280,  2281,  2282,  2283
  2284,  2285,  2286,  2287,  2288,  2289,  2290,  2291,  2292,  2293,  2294,  2295,  2296,  2297,  2298,  2299
  2300,  2301,  2302,  2303,  2304,  2305,  2306,  2307,  2308,  2309,  2310,  2311,  2312,  2313,  2314,  2315
  2316,  2579,  2580,  2581,  2582,  2583,  2584,  2585,  2586,  2587,  2588,  2589,  2590,  2591,  2592,  2593
** ... 275 like lines cut
*Elset, elset=sub
  4329,  4330,  4331,  4332,  4333,  4334,  4335,  4336,  4337,  4338,  4339,  4340,  4341,  4342,  4343,  4344
  4345,  4346,  4347,  4348,  4349,  4350,  4351,  4352,  4353,  4354,  4355,  4356,  4357,  4358,  4359,  4360
  4361,  4362,  4363,  4364,  4365,  4366,  4367,  4368,  4369,  4370,  4371,  4372,  4373,  4374,  4375,  4376
  4377,  4378,  4379,  4380,  4381,  4382,  4383,  4384,  4385,  4386,  4387,  4388,  4389,  4390,  4391,  4392
  4393,  4394,  4395,  4396,  4397,  4398,  4399,  4400,  4401,  4402,  4403,  4404,  4405,  4406,  4407,  4408
  4409,  4410,  4411,  4412,  4413,  4414,  4415,  4416,  4417,  4418,  4419,  4420,  4421,  4422,  4423,  4424
  4425,  4426,  4427,  4428,  4429,  4430,  4431,  4432,  4433,  4434,  4435,  4436,  4437,  4438,  4439,  4440
  4441,  4442,  4443,  4444,  4445,  4446,  4447,  4448,  4449,  4450,  4451,  4452,  4453,  4454,  4455,  4456
  4457,  4458,  4459,  4460,  4461,  4462,  4463,  4464,  4465,  4466,  4467,  4468,  4469,  4470,  4471,  4472
  4473,  4474,  4475,  4476,  4477,  4478,  4479,  4480,  4481,  4482,  4483,  4484,  4485,  4486,  4487,  4488
  4489,  4490,  4491,  4492,  4493,  4494,  4495,  4496,  4497,  4498,  4499,  4500,  4501,  4502,  4503,  4504
  4505,  4506,  4507,  4508,  4509,  4510,  4511,  4512,  4513,  4514,  4515,  4516,  4517,  4518,  4519,  4520
  4521,  4522,  4523,  4524,  4525,  4526,  4527,  4528,  4529,  4530,  4531,  4532,  4533,  4534,  4535,  4536
  4537,  4538,  4539,  4540,  4541,  4542,  4543,  4544,  4545,  4546,  4547,  4548,  4549,  4550,  4551,  4552
  4553,  4554,  4555,  4556,  4557,  4558,  4559,  4560,  4561,  4562,  4563,  4564,  4565,  4566,  4567,  4568
  4569,  4570,  4571,  4572,  4573,  4574,  4575,  4576,  4577,  4578,  4579,  4580,  4581,  4582,  4583,  4584
  4585,  4586,  4587,  4588,  4589,  4590,  4591,  4592,  4593,  4594,  4595,  4596,  4597,  4598,  4599,  4600
  4601,  4602,  4603,  4604,  4605,  4606,  4607,  4608,  4609,  4610,  4611,  4612,  4613,  4614,  4615,  4616
  4617,  4618,  4619,  4620,  4621,  4622,  4623,  4624,  4625,  4626,  4627,  4628,  4629,  4630,  4631,  4632
  4633,  4634,  4635,  4636,  4637,  4638,  4639,  4640,  4641,  4642,  4643,  4644,  4645,  4646,  4647,  4648
** ... 265 like lines cut
*Nset, nset=ip
  1648,  1649,  1650,  1651,  1652,  1653,  1654,  1655,  1656,  1657,  1658,  1659,  1660,  1661,  1662,  1663
  1664,  1665,  1666,  1667,  1668,  1669,  1670,  1671,  1673,  1675,  1676,  1677,  1678,  1679,  1681,  1682
  1683,  1684,  1685,  1686,  1687,  1688,  1689,  1690,  1691,  1692,  1693,  1694,  1695,  1696,  1697,  1698
  1699,  1700,  1701,  1702,  1703,  1704,  1705,  1706,  1707,  1708,  1709,  1710,  1711,  1712,  1713,  1714
  1715,  1716,  1717,  1718,  1719,  1720,  1721,  1722,  1723,  1724,  1725,  1726,  1727,  1728,  1729,  1730
  1731,  1732,  1733,  1734,  1735,  1736,  1737,  1738,  1739,  1740,  1741,  1742,  1743,  1744,  1745,  1746
  1747,  1748,  1749,  1750,  1751,  1752,  1753,  1754,  1755,  1756,  1757,  1758,  1759,  1760,  1761,  1762
  1763,  1764,  1765,  1766,  1767,  1768,  1769,  1770,  1771,  1772,  1773,  1774,  1775,  1776,  1777,  1778
  1779,  1780,  1781,  1782,  1783,  1784,  1785,  1786,  1787,  1788,  1789,  1790,  1791,  1792,  1793,  1794
  1795,  1796,  1797,  1798,  1799,  1800,  1801,  1802,  1803,  1804,  1805,  1806,  1807,  1808,  1809,  1810
  1811,  1812,  1813,  1814,  1815,  1816,  1817,  1818,  1819,  1820,  1821,  1822,  1823,  1824,  1825,  1826
  1827,  1828,  1829,  1830,  1831,  1832,  1833,  1834,  1835,  1836,  1837,  1838,  1839,  1840,  1841,  1842
  1843,  1844,  1845,  1846,  1847,  1848,  1849,  1850,  1851,  1852,  1853,  1854,  1855,  1856,  1857,  1858
  1859,  1860,  1861,  1862,  1863,  1864,  1865,  1866,  1867,  1868,  1869,  1870,  1871,  1872,  1873,  1874
  1875,  1876,  1877,  1878,  1879,  1880,  1881,  1882,  1883,  1884,  1885,  1886,  1887,  1888,  1889,  1890
  1891,  1892,  1893,  1894,  1895,  1896,  1897,  1898,  1899,  1900,  1901,  1902,  1903,  1904,  1905,  1906
  1907,  1908,  1909,  1910,  1911,  1912,  1913,  1914,  1915,  1916,  1917,  1918,  1919,  1920,  1921,  1922
  1923,  1924,  1925,  1926,  1927,  1928,  1929,  1930,  1931,  1932,  1933,  1934,  1935,  1936,  1937,  1938
  1939,  1940,  1941,  1942,  1943,  1944,  1945,  1946,  1947,  1948,  1949,  1950,  1951,  1952,  1953,  1954
  1955,  1956,  1957,  1958,  1959,  1960,  1961,  1962,  1963,  1964,  1965,  1966,  1967,  1968,  1969,  1970
** ... 697 like lines cut
*Elset, elset=ip
  1526,  1527,  1528,  1529,  1530,  1531,  1532,  1533,  1534,  1535,  1536,  1537,  1538,  1539,  1540,  1541
  1542,  1543,  1544,  1545,  1546,  1547,  1548,  1549,  1550,  1551,  1552,  1553,  1554,  1555,  1556,  1557
  1558,  1559,  1560,  1561,  1562,  1563,  1564,  1565,  1566,  1567,  1568,  1569,  1570,  1571,  1572,  1573
  1574,  1575,  1576,  1577,  1578,  1579,  1580,  1581,  1582,  1583,  1584,  1585,  1586,  1587,  1588,  1589
  1590,  1591,  1592,  1593,  1594,  1595,  1596,  1597,  1598,  1599,  1600,  1601,  1602,  1603,  1604,  1605
  1606,  1607,  1608,  1609,  1610,  1611,  1612,  1613,  1614,  1615,  1616,  1617,  1618,  1619,  1620,  1621
  1622,  1623,  1624,  1625,  1626,  1627,  1628,  1629,  1630,  1631,  1632,  1633,  1634,  1635,  1636,  1637
  1638,  1639,  1640,  1641,  1642,  1643,  1644,  1645,  1646,  1647,  1648,  1649,  1650,  1651,  1652,  1653
  1654,  1655,  1656,  1657,  1658,  1659,  1660,  1661,  1662,  1663,  1664,  1665,  1666,  1667,  1668,  1669
  1670,  1671,  1672,  1673,  1674,  1675,  1676,  1677,  1678,  1679,  1680,  1681,  1682,  1683,  1684,  1685
  1686,  1687,  1688,  1689,  1690,  1691,  1692,  1693,  1694,  1695,  1696,  1697,  1698,  1699,  1700,  1701
  1702,  1703,  1704,  1705,  1706,  1707,  1708,  1709,  1710,  1711,  1712,  1713,  1714,  1715,  1716,  1717
  1718,  1719,  1720,  1721,  1722,  1723,  1724,  1725,  1726,  1727,  1728,  1729,  1730,  1731,  1732,  1733
  1734,  1735,  1736,  1737,  1738,  1739,  1740,  1741,  1742,  1743,  1744,  1745,  1746,  1747,  1748,  1749
  1750,  1751,  1752,  1753,  1754,  1755,  1756,  1757,  1758,  1759,  1760,  1761,  1762,  1763,  1764,  1765
  1766,  1767,  1768,  1769,  1770,  1771,  1772,  1773,  1774,  1775,  1776,  1777,  1778,  1779,  1780,  1781
  1782,  1783,  1784,  1785,  1786,  1787,  1788,  1789,  1790,  1791,  1792,  1793,  1794,  1795,  1796,  1797
  1798,  1799,  1800,  1801,  1802,  1803,  1804,  1805,  1806,  1807,  1808,  1809,  1810,  1811,  1812,  1813
  1814,  1815,  1816,  1817,  1818,  1819,  1820,  1821,  1822,  1823,  1824,  1825,  1826,  1827,  1828,  1829
  1830,  1831,  1832,  1833,  1834,  1835,  1836,  1837,  1838,  1839,  1840,  1841,  1842,  1843,  1844,  1845
** ... 671 like lines cut
*Nset, nset=ip_right_top
 1648, 1651, 1656, 1660, 1663, 1664, 1675, 1678, 1679, 1723, 1724, 1725, 1726, 1727, 1728, 1729
 1730, 1731, 1732, 1733, 1734, 1735, 1736, 1737, 1738, 1739, 1740, 1827, 1828, 1829, 1830, 1831
 1832, 1833, 1834, 1835, 1836, 1837, 1838, 1953, 1954, 1955, 1956, 1957, 1958, 1959, 1960, 1961
 1962, 1963, 1964, 1965, 1966, 1967, 1968, 1969, 1970, 1971, 1972, 1973, 1974, 1975, 1976, 1977
 1978, 1979, 1980, 1981, 1982, 1983, 1984, 1985, 1986, 1987, 1988, 1989, 1990, 1991, 1992, 1993
 1994, 2048, 2049, 2050, 2051, 2052, 2053, 2054, 2055, 2056, 2057, 2058, 2059, 2060, 2061, 2062
 2063, 2064, 2065, 2607, 2608, 2609, 2610, 2611, 2612, 2613, 2614, 2615, 2616, 2617, 2618, 2619
 2620, 2621, 2622, 2623, 2624, 2625, 2626, 2627, 2628, 2629, 2630, 2631, 2632, 2633, 2634, 2635
 2636, 2637, 2638, 2639, 2640, 2641, 2642, 2643, 2644, 2645, 2646, 2647, 2648, 2649, 2650, 2651
 2652, 2653, 2654, 2655, 2656, 2657, 2658, 2659, 2660, 2661, 2662, 2663, 2664, 2665, 2666, 2667
 2668, 2669, 2670, 2671, 2672, 2673, 2674, 2675, 2676, 2677, 2678, 2679, 2680, 2681, 2682, 2683
 2684, 2685, 2686, 2687, 2688, 2689, 2690, 2691, 2692, 2693, 2694, 2695, 2696, 2697, 2698, 2699
 2700, 2701, 2702, 2703, 2704, 2705, 2706, 2707, 2708, 2709, 2710, 2711, 2712, 2713, 2714, 2715
 2716, 2717, 2718, 2719, 2720, 2721, 2722, 2723, 2724, 2725, 2726, 2727, 2728, 2729, 2730, 2731
 2732, 2733, 2734, 2735, 2736, 2737, 2738, 2739, 2740, 2741, 2742, 2743, 2744, 2745, 2746, 2747
 2748, 2749, 2750, 2751, 2752, 2753, 2754, 2755, 2756, 2757, 2758, 2759, 2760, 2761, 2762, 2763
 2764, 2765, 2766, 2767, 2768
*Elset, elset=ip_right_top
  1526,  1539,  1552,  1565,  1578,  1591,  1604,  1617,  1630,  1643,  1656,  1669,  1682,  1695,  1708,  1721
  1734,  1747,  1760,  2039,  2052,  2065,  2078,  2091,  2104,  2117,  2130,  2143,  2156,  2169,  2182,  2195
  2628,  2641,  2654,  2667,  2680,  2693,  2706,  2719,  2732,  2745,  2758,  2771,  2784,  2797,  2810,  2823
  2836,  2849,  2862,  2875,  2900,  2913,  2926,  2939,  2952,  2965,  2978,  2991,  3004,  3017,  3030,  3043
  3056,  3069,  3082,  3095,  3108,  3121,  3134,  3147,  3160,  3173,  3186,  3199,  3200,  3213,  3226,  3239
  3252,  3265,  3278,  3291,  3304,  3317,  3330,  3343,  3356,  3369,  3382,  3395,  3408,  3421,  3434, 11000
 11004, 11005, 11006, 11007, 11008, 11009, 11011, 11012, 11192, 11213, 11214, 11216, 11218, 11220, 11235, 11236
 11237, 11238, 11239, 11241, 11242, 11243, 11253, 11254, 11256, 11257, 11259, 11260, 11268, 11269, 11279, 11280
 11281, 11288, 11290, 11297, 11309, 11310, 11313, 11314, 11315, 11316, 11317, 11320, 11322, 11359, 11365, 11384
 11392, 11400, 11408, 11430, 11439, 11538, 11602, 11603, 11610, 11611, 11612, 11613, 11614, 11615, 11616, 11617
 11618, 11619, 11620, 11621, 11622, 11623, 11624, 11625, 11626, 11627, 11628, 11629, 11630, 11631, 11633, 11634
 11635, 11636, 11637, 11638, 11639, 11640, 11641, 11642, 11643, 11645, 11646, 11647, 11648, 11649, 11650, 11651
 11652, 11653, 11654, 11655, 11656, 11657, 11658, 11659, 11660, 11661, 11662, 11663, 11664, 11665, 11666, 11667
 11668, 11669, 11670, 11671, 11673, 11674, 11675, 11676, 11677, 11679, 11681, 11682, 11683, 11685, 11686, 11687
 11689, 11692, 11695, 11696, 11699, 11703, 11704, 11709, 11714, 11722, 11723, 11736, 11739, 11748, 11749, 11750
 11752, 11754, 11756, 11763, 11766, 11767, 11769, 11774, 11779, 11781, 11783, 11790, 11791, 11792, 11794, 11799
 11811, 11819, 11822, 11824
*Nset, nset=ip_left_top
1653,1654,1659,1667,1668,1670,1675,1676,1677,1754,1755,1756,1757,1758,1759,1760
1761,1762,1763,1764,1765,1766,1767,1768,1769,1770,1771,1852,1853,1854,1855,1856
1857,1858,1859,1860,1861,1862,1863,1864,1865,1866,1867,1868,1869,1870,1871,1872
1873,1874,1875,1876,1877,1878,1879,1880,2079,2080,2081,2082,2083,2084,2085,2086
2087,2088,2089,2090,2091,2092,2093,2094,2095,2096,2097,2161,2162,2163,2164,2165
2166,2167,2168,2169,2170,2171,2172,2173,2174,2175,2176,2177,2178,2179,2180,2181
2182,2183,2184,2185,2186,2187,2188,2189,2190,2191,2192,2193,2194,2195,2196,2197
2198,2199,2200,2201,2417,2418,2419,2420,2421,2422,2423,2424,2425,2426,2427,2428
2429,2430,2431,2432,2433,2434,2435,2436,2437,2438,2439,2440,2441,2442,2443,2444
2445,2446,2447,2448,2449,2450,2451,2452,2453,2454,2455,2456,2457,2458,2459,2460
2461,2462,2463,2464,2465,2466,2467,2468,2469,2470,2471,2472,2473,2474,2475,2476
2477,2478,2479,2480,2481,2482,2483,2484,2485,2486,2487,2488,2489,2490,2491,2492
2493,2494,2495,2496,2497,2498,2499,2500,2501,2502,2503,2504,2505,2506,2507,2508
2509,2510,2511,2512,2513,2514,2515,2516,2517,2518,2519,2520,2521,2522,2523,2524
2525,2526,2527,2528,2529,2530,2531,2532,2533,2534,2535,2536,2537,2538,2539,2540
2541,2542,2543,2544,2545,2546,2547,2548,2549,2550,2551,2552,2553,2554,2555,2556
2557,2558,2559,2560,2561,2562,2563,2564,2565,2566,2567,2568,2569,2570,2571,2572
2573,2574,2575,2576,2577,2578
*Elset, elset=ip_left_top
 1786, 1800, 1814, 1828, 1842, 1856, 1870, 1884, 1898, 1912, 1926, 1940, 1954, 1968, 1982, 1996
 2010, 2024, 2038, 2221, 2235, 2249, 2263, 2277, 2291, 2305, 2319, 2333, 2347, 2361, 2375, 2389
 2403, 2417, 2431, 2445, 2459, 2473, 2487, 2501, 2515, 2529, 2543, 2557, 2571, 2585, 2599, 2613
 2627, 3460, 3474, 3488, 3502, 3516, 3530, 3544, 3558, 3572, 3586, 3600, 3614, 3628, 3642, 3656
 3670, 3684, 3698, 3712, 3726, 3727, 3741, 3755, 3769, 3783, 3797, 3811, 3825, 3839, 3853, 3867
 3881, 3895, 3909, 3923, 3937, 3951, 3965, 3979, 4006, 4020, 4034, 4048, 4062, 4076, 4090, 4104
 4118, 4132, 4146, 4160, 4174, 4188, 4202, 4216, 4230, 4244, 4258, 4272, 4286, 4300, 4314, 4328
 6829, 6830, 6831, 6832, 6833, 6834, 6851, 6852, 6853, 6854, 6891, 6900, 6901, 6908, 6910, 6923
 6924, 6946, 6976, 6982, 6987, 6994, 6995, 7000, 7001, 7002, 7003, 7009, 7011, 7013, 7015, 7016
 7017, 7018, 7019, 7020, 7021, 7022, 7035, 7036, 7037, 7038, 7196, 7204, 7213, 7268, 7294, 7297
 7325, 7350, 7361, 7362, 7363, 7412, 7413, 7414, 7415, 7416, 7417, 7418, 7419, 7420, 7421, 7422
 7423, 7424, 7425, 7426, 7427, 7429, 7430, 7431, 7432, 7433, 7435, 7436, 7437, 7439, 7440, 7441
 7443, 7444, 7446, 7447, 7448, 7449, 7450, 7451, 7452, 7453, 7454, 7456, 7457, 7458, 7459, 7461
 7463, 7464, 7465, 7466, 7467, 7469, 7470, 7471, 7472, 7473, 7474, 7475, 7476, 7477, 7478, 7479
 7480, 7481, 7482, 7483, 7484, 7485, 7486, 7487, 7488, 7489, 7490, 7492, 7493, 7494, 7495, 7496
 7498, 7499, 7500, 7502, 7503, 7504, 7505, 7506, 7507, 7508, 7509, 7512, 7535, 7536, 7539, 7543
 7545, 7547, 7549, 7550, 7569, 7571, 7580, 7582, 7584, 7587, 7609, 7610, 7618, 7621, 7625, 7627
 7629, 7630, 7632, 7650, 7671
*Nset, nset=sub_bottom
 1672, 1674, 1680, 2303, 2304, 2305, 2306, 2307, 2308, 2309, 2310, 2311, 2312, 2313, 2314, 2315
 2316, 2769, 2770, 2771, 2772, 2773, 2774, 2775, 2776, 2777, 2778, 2779, 2780, 2781, 2782
*Elset, elset=sub_bottom
  4329,  4330,  4332,  4333,  4338,  4391,  4392,  4393,  4394,  4396,  4569,  4570,  4571,  6733,  6734, 15078
 15080, 15101, 15106, 15110, 15113, 15114, 15121, 15128, 15189, 15190, 15191, 15192, 17059, 17062
*Elset, elset=ip_right_left_surf_S3
 3713, 3714, 3715, 3716, 3717, 3718, 3719, 3720, 3721, 3722, 3723, 3724, 3725, 3726, 4338, 4385
 4386, 4422, 4426, 4561, 4562, 4564, 4566, 4629
*Elset, elset=ip_right_left_surf_S4
 4389, 4558, 4627, 4628
*Elset, elset=ip_right_left_surf_S2
 4567, 4867, 6729
*Surface, type=ELEMENT, name=ip_right_left_surf
ip_right_left_surf_S3, S3
ip_right_left_surf_S4, S4
ip_right_left_surf_S2, S2
*Elset, elset=ip_right_top_surf_S4
  1526,  1539,  1552,  1565,  1578,  1591,  1604,  1617,  1630,  1643,  1656,  1669,  1682,  1695,  1708,  1721
  1734,  1747,  1760,  2039,  2052,  2065,  2078,  2091,  2104,  2117,  2130,  2143,  2156,  2169,  2182,  2195
  2628,  2641,  2654,  2667,  2680,  2693,  2706,  2719,  2732,  2745,  2758,  2771,  2784,  2797,  2810,  2823
  2836,  2849,  2862,  2875,  3200,  3213,  3226,  3239,  3252,  3265,  3278,  3291,  3304,  3317,  3330,  3343
  3356,  3369,  3382,  3395,  3408,  3421,  3434, 11696
*Elset, elset=ip_right_top_surf_S2
  2900,  2913,  2926,  2939,  2952,  2965,  2978,  2991,  3004,  3017,  3030,  3043,  3056,  3069,  3082,  3095
  3108,  3121,  3134,  3147,  3160,  3173,  3186,  3199, 11655
*Elset, elset=ip_right_top_surf_S3
 11000, 11005, 11009, 11012, 11213, 11243, 11253, 11279, 11281, 11290, 11309, 11315, 11316, 11317, 11320, 11322
 11359, 11392, 11400, 11430, 11538, 11610, 11611, 11613, 11624, 11627, 11629, 11633, 11636, 11639, 11642, 11646
 11647, 11650, 11651, 11657, 11659, 11660, 11662, 11664, 11670, 11673, 11674, 11675, 11676, 11677, 11679, 11681
 11682, 11685, 11689, 11704, 11709, 11723, 11749, 11756, 11767, 11769, 11779, 11783, 11790, 11791, 11792, 11819
*Elset, elset=ip_right_top_surf_S1
 11004, 11006, 11007, 11008, 11011, 11192, 11214, 11216, 11218, 11220, 11235, 11236, 11237, 11238, 11239, 11241
 11242, 11254, 11256, 11257, 11259, 11260, 11268, 11269, 11280, 11288, 11297, 11310, 11313, 11314, 11365, 11384
 11408, 11439, 11602, 11603, 11612, 11614, 11615, 11616, 11617, 11618, 11619, 11620, 11621, 11622, 11623, 11625
 11626, 11628, 11630, 11631, 11634, 11635, 11637, 11638, 11640, 11641, 11643, 11645, 11648, 11649, 11652, 11653
 11654, 11656, 11658, 11661, 11663, 11665, 11666, 11667, 11668, 11669, 11671, 11683, 11686, 11687, 11692, 11695
 11699, 11703, 11714, 11722, 11736, 11739, 11748, 11750, 11752, 11754, 11763, 11766, 11774, 11781, 11794, 11799
 11811, 11822, 11824
*Surface, type=ELEMENT, name=ip_right_top_surf
ip_right_top_surf_S4, S4
ip_right_top_surf_S2, S2
ip_right_top_surf_S3, S3
ip_right_top_surf_S1, S1
*Elset, elset=ip_left_top_surf_S2
 1786, 1800, 1814, 1828, 1842, 1856, 1870, 1884, 1898, 1912, 1926, 1940, 1954, 1968, 1982, 1996
 2010, 2024, 2038, 2221, 2235, 2249, 2263, 2277, 2291, 2305, 2319, 2333, 2347, 2361, 2375, 2389
 2403, 2417, 2431, 2445, 2459, 2473, 2487, 2501, 2515, 2529, 2543, 2557, 2571, 2585, 2599, 2613
 2627, 3460, 3474, 3488, 3502, 3516, 3530, 3544, 3558, 3572, 3586, 3600, 3614, 3628, 3642, 3656
 3670, 3684, 3698, 3712, 3726, 4006, 4020, 4034, 4048, 4062, 4076, 4090, 4104, 4118, 4132, 4146
 4160, 4174, 4188, 4202, 4216, 4230, 4244, 4258, 4272, 4286, 4300, 4314, 4328, 6829, 6830, 6831
 6832, 6833, 6852, 6891, 6900, 6908, 6910, 6923, 6946, 6987, 6994, 6995, 7000, 7001, 7002, 7003
 7013, 7015, 7018, 7021, 7022, 7268, 7294, 7297, 7325, 7361, 7362, 7413, 7415, 7417, 7421, 7422
 7424, 7425, 7430, 7435, 7436, 7439, 7444, 7446, 7450, 7452, 7454, 7457, 7459, 7461, 7463, 7466
 7467, 7469, 7470, 7475, 7477, 7480, 7485, 7486, 7488, 7490, 7492, 7495, 7496, 7500, 7502, 7503
 7504, 7505, 7506, 7507, 7509, 7535, 7536, 7539, 7543, 7545, 7549, 7569, 7571, 7580, 7582, 7584
 7587, 7610, 7618, 7621, 7625, 7627, 7629, 7632, 7650, 7671
*Elset, elset=ip_left_top_surf_S4
 3727, 3741, 3755, 3769, 3783, 3797, 3811, 3825, 3839, 3853, 3867, 3881, 3895, 3909, 3923, 3937
 3951, 3965, 3979, 6834, 6851, 6853, 6854, 6901, 6924, 6976, 6982, 7009, 7011, 7016, 7017, 7019
 7020, 7035, 7036, 7037, 7038, 7196, 7204, 7213, 7350, 7412, 7414, 7416, 7418, 7419, 7420, 7423
 7426, 7427, 7429, 7431, 7432, 7433, 7437, 7440, 7441, 7443, 7447, 7448, 7449, 7451, 7453, 7456
 7458, 7464, 7465, 7471, 7472, 7473, 7474, 7476, 7478, 7479, 7481, 7482, 7483, 7484, 7487, 7489
 7493, 7494, 7498, 7499, 7508, 7512, 7547, 7550, 7609, 7630
*Elset, elset=ip_left_top_surf_S1
 7363,
*Surface, type=ELEMENT, name=ip_left_top_surf
ip_left_top_surf_S2, S2
ip_left_top_surf_S4, S4
ip_left_top_surf_S1, S1
*Elset, elset=sub_bot_surf_S3
  4329, 15078, 15080, 15121, 15191, 17059, 17062
*Elset, elset=sub_bot_surf_S4
 4330, 4338, 4393, 4396
*Elset, elset=sub_bot_surf_S2
 4332, 4333, 4391, 4392, 4394, 4569, 4570, 4571, 6734
*Elset, elset=sub_bot_surf_S1
  6733, 15101, 15106, 15110, 15113, 15114, 15128, 15189, 15190, 15192
*Surface, type=ELEMENT, name=sub_bot_surf
sub_bot_surf_S3, S3
sub_bot_surf_S4, S4
sub_bot_surf_S2, S2
sub_bot_surf_S1, S1
*Elset, elset=ip_top_surf_S2
  1786,  1800,  1814,  1828,  1842,  1856,  1870,  1884,  1898,  1912,  1926,  1940,  1954,  1968,  1982,  1996
  2010,  2024,  2038,  2221,  2235,  2249,  2263,  2277,  2291,  2305,  2319,  2333,  2347,  2361,  2375,  2389
  2403,  2417,  2431,  2445,  2459,  2473,  2487,  2501,  2515,  2529,  2543,  2557,  2571,  2585,  2599,  2613
  2627,  2900,  2913,  2926,  2939,  2952,  2965,  2978,  2991,  3004,  3017,  3030,  3043,  3056,  3069,  3082
  3095,  3108,  3121,  3134,  3147,  3160,  3173,  3186,  3199,  3460,  3474,  3488,  3502,  3516,  3530,  3544
  3558,  3572,  3586,  3600,  3614,  3628,  3642,  3656,  3670,  3684,  3698,  3712,  3726,  4006,  4020,  4034
  4048,  4062,  4076,  4090,  4104,  4118,  4132,  4146,  4160,  4174,  4188,  4202,  4216,  4230,  4244,  4258
  4272,  4286,  4300,  4314,  4328,  6829,  6830,  6831,  6832,  6833,  6852,  6891,  6900,  6908,  6910,  6923
  6946,  6987,  6994,  6995,  7000,  7001,  7002,  7003,  7013,  7015,  7018,  7021,  7022,  7268,  7294,  7297
  7325,  7361,  7362,  7413,  7415,  7417,  7421,  7422,  7424,  7425,  7430,  7435,  7436,  7439,  7444,  7446
  7450,  7452,  7454,  7457,  7459,  7461,  7463,  7466,  7467,  7469,  7470,  7475,  7477,  7480,  7485,  7486
  7488,  7490,  7492,  7495,  7496,  7500,  7502,  7503,  7504,  7505,  7506,  7507,  7509,  7535,  7536,  7539
  7543,  7545,  7549,  7569,  7571,  7580,  7582,  7584,  7587,  7610,  7618,  7621,  7625,  7627,  7629,  7632
  7650,  7671, 11655
*Elset, elset=ip_top_surf_S4
  1526,  1539,  1552,  1565,  1578,  1591,  1604,  1617,  1630,  1643,  1656,  1669,  1682,  1695,  1708,  1721
  1734,  1747,  1760,  2039,  2052,  2065,  2078,  2091,  2104,  2117,  2130,  2143,  2156,  2169,  2182,  2195
  2628,  2641,  2654,  2667,  2680,  2693,  2706,  2719,  2732,  2745,  2758,  2771,  2784,  2797,  2810,  2823
  2836,  2849,  2862,  2875,  3200,  3213,  3226,  3239,  3252,  3265,  3278,  3291,  3304,  3317,  3330,  3343
  3356,  3369,  3382,  3395,  3408,  3421,  3434,  3727,  3741,  3755,  3769,  3783,  3797,  3811,  3825,  3839
  3853,  3867,  3881,  3895,  3909,  3923,  3937,  3951,  3965,  3979,  6834,  6851,  6853,  6854,  6901,  6924
  6976,  6982,  7009,  7011,  7016,  7017,  7019,  7020,  7035,  7036,  7037,  7038,  7196,  7204,  7213,  7350
  7412,  7414,  7416,  7418,  7419,  7420,  7423,  7426,  7427,  7429,  7431,  7432,  7433,  7437,  7440,  7441
  7443,  7447,  7448,  7449,  7451,  7453,  7456,  7458,  7464,  7465,  7471,  7472,  7473,  7474,  7476,  7478
  7479,  7481,  7482,  7483,  7484,  7487,  7489,  7493,  7494,  7498,  7499,  7508,  7512,  7547,  7550,  7609
  7630, 11696
*Elset, elset=ip_top_surf_S1
  7363, 11004, 11006, 11007, 11008, 11011, 11192, 11214, 11216, 11218, 11220, 11235, 11236, 11237, 11238, 11239
 11241, 11242, 11254, 11256, 11257, 11259, 11260, 11268, 11269, 11280, 11288, 11297, 11310, 11313, 11314, 11365
 11384, 11408, 11439, 11602, 11603, 11612, 11614, 11615, 11616, 11617, 11618, 11619, 11620, 11621, 11622, 11623
 11625, 11626, 11628, 11630, 11631, 11634, 11635, 11637, 11638, 11640, 11641, 11643, 11645, 11648, 11649, 11652
 11653, 11654, 11656, 11658, 11661, 11663, 11665, 11666, 11667, 11668, 11669, 11671, 11683, 11686, 11687, 11692
 11695, 11699, 11703, 11714, 11722, 11736, 11739, 11748, 11750, 11752, 11754, 11763, 11766, 11774, 11781, 11794
 11799, 11811, 11822, 11824
*Elset, elset=ip_top_surf_S3
 11000, 11005, 11009, 11012, 11213, 11243, 11253, 11279, 11281, 11290, 11309, 11315, 11316, 11317, 11320, 11322
 11359, 11392, 11400, 11430, 11538, 11610, 11611, 11613, 11624, 11627, 11629, 11633, 11636, 11639, 11642, 11646
 11647, 11650, 11651, 11657, 11659, 11660, 11662, 11664, 11670, 11673, 11674, 11675, 11676, 11677, 11679, 11681
 11682, 11685, 11689, 11704, 11709, 11723, 11749, 11756, 11767, 11769, 11779, 11783, 11790, 11791, 11792, 11819
*Surface, type=ELEMENT, name=ip_top_surf
ip_top_surf_S2, S2
ip_top_surf_S4, S4
ip_top_surf_S1, S1
ip_top_surf_S3, S3
***********
*Elset,elset=se
se_right,se_left
*Surface, type=Node, name=se_left_right_nsurf
se_left_right
*Surface, type=Node, name=se_right_left_nsurf
se_right_left
************************************************************************
**			MATERIAL DEFINITION
************************************************************************
**
*Solid section, elset=ip, material=ip
** Material properties for the real mesh for Li
**
*Material, name=ip
*User material, Constants=16
**Eyoung poisson   Apre    Qact  To    mRate    Y0       Ho    
  7.81e3,   0.38,  4.254E4, 37., 298., 0.15,   0.95E0,   10.E0 
** Ysat   ahard nhard  
  2.0E0,   2.0, 0.05, <Omega>, <alpha1>,<alpha2>,<alpha3>,<cDot>
**
*Depvar
24
10,nuP
12,Y
14,ebarp
15,conc
**
*Solid section, elset=sub, material=Li_sub
*********************************************** 
**
*Material, name=Li_sub
*User material, Constants=16
**Eyoung poisson   Apre    Qact  To    mRate    Y0       Ho    
  7.81e3,   0.38,  4.254E4, 37., 298., 0.15,   0.95E0,   10.E0 
** Ysat   ahard nhard  
  2.0E0,   2.0, 0.05, <Omega>, <alpha1>,<alpha2>,<alpha3>,0.
**
*Depvar
24
10,nuP
12,Y
14,ebarp
15,conc
**
**
*Solid section, elset=se, material= Ceramic
*Material, name=Ceramic
*Elastic
172.e3, 0.3
************************************************************************
**			INTERACTION
************************************************************************
** INTERACTION PROPERTIES
** 
*Surface Interaction, name=Cohesive
***Cohesive Behavior, Eligibility = SPECIFIED CONTACTS
*Cohesive Behavior
150.e5,150.e5, 150.e5
*Damage Initiation, criterion=QUADS
100.e0,100.e0, 100.e0
***Damage Evolution, type=ENERGY, mixed mode behavior=POWER LAW, power=1.
**1.e0,1.e0,1.e0
*Damage Evolution, type=ENERGY
6.67e0
**10.e0
*Damage Stabilization
1.E-5 
**
*Contact Pair,adjust=0.005,inter=cohesive
se_left_right_surf,se_right_left_surf
*TIE,adjust=yes, name=tiedsurf
ip_top_surf,se_bot_surf
**Li_right_left_surf,Li_left_right_surf
**Li_left_right_nsurf,Li_right_left_nsurf
************************************************************************
**			AMPLITUDE
************************************************************************
*Amplitude, name=amp_new
0.,0.,1.,1.,500.,1.
************************************************************************
****			INITIAL CONDITIONS
************************************************************************
************************************************************************
**			SIMULATION STEP
************************************************************************
*Step, Name=Swell, nlgeom=yes, inc=500000
*Static
0.001,500.,1.e-6,40.
*CONTROLS, PARAMETERS=LINE SEARCH
10,1.0,0.0001,0.25,0.10
*CONTROLS, PARAMETERS=TIME INCREMENTATION
,,,,,,,20,,,,,,
*** *CONTROLS, PARAMETERS=FIELD, FIELD=DISPLACEMENT
*** ,1.0,,,,,1.0,
**
**	DISPLACEMENT B.C.
**
**
*Boundary, op=new
se_right_top,2,2
se_left_top,2,2
se_left_left,1,1
Li_left,1,1
se_right_right,1,1
Li_right,1,1
sub_bottom,2,2,0.0005
**
***Dsload, amplitude=amp_new
**sub_bot_surf,P,0.5
**
**************************************************
*Output, field, frequency=20
*node output, nset=Li
u
*node output, nset=se
u
*element output
S,E,sdv
*contact output, nset=se_left_right
CSDMG
*End Step
************************************************************************